<?xml version="1.0" encoding="utf-8"?>
<!DOCTYPE population SYSTEM "http://www.matsim.org/files/dtd/population_v5.dtd">

<population>

<!-- ====================================================================== -->

	<person id="1" employed="no">
		<plan selected="yes">
			<act type="h" link="dumb" end_time="06:00:00" />
			<leg mode="car">
			</leg>
			<act type="w" link="endtowork" end_time="16:00:00" />
			<leg mode="car">
			</leg>
		</plan>

	</person>

	
</population>
