<?xml version="1.0" encoding="utf-8"?>
<!DOCTYPE population SYSTEM "http://www.matsim.org/files/dtd/population_v5.dtd">

<population>

<!-- ====================================================================== -->

	<person id="1" employed="no">
		<plan selected="yes">
			<act type="h" x="-1.1641550438775107E7" y="4613467.510977818" end_time="01:07:42" />
			<leg mode="car">
			</leg>
			<act type="h" x="-1.1645499286203966E7" y="4619162.854875222" end_time="06:10:20" />
			<leg mode="car">
			</leg>
		</plan>

	</person>

<!-- ====================================================================== -->

	<person id="10" employed="no">
		<plan selected="yes">
			<act type="h" x="-1.164401083329257E7" y="4614576.359479385" end_time="01:16:36" />
			<leg mode="car">
			</leg>
			<act type="h" x="-1.1645155865574868E7" y="4618645.626202837" end_time="04:07:42" />
			<leg mode="car">
			</leg>
		</plan>

	</person>

<!-- ====================================================================== -->

	<person id="100" employed="no">
		<plan selected="yes">
			<act type="h" x="-1.16510366071067E7" y="4611371.923083744" end_time="05:47:36" />
			<leg mode="car">
			</leg>
			<act type="h" x="-1.1645660109472314E7" y="4618772.031008444" end_time="10:18:11" />
			<leg mode="car">
			</leg>
		</plan>

	</person>

<!-- ====================================================================== -->

	<person id="101" employed="no">
		<plan selected="yes">
			<act type="h" x="-1.1643170237553691E7" y="4618307.62788575" end_time="05:03:10" />
			<leg mode="car">
			</leg>
			<act type="h" x="-1.1645162043806605E7" y="4619037.154317903" end_time="07:20:50" />
			<leg mode="car">
			</leg>
		</plan>

	</person>

<!-- ====================================================================== -->

	<person id="102" employed="no">
		<plan selected="yes">
			<act type="h" x="-1.1649284916995425E7" y="4614046.079973756" end_time="05:44:59" />
			<leg mode="car">
			</leg>
			<act type="h" x="-1.1645666499211088E7" y="4619029.071189271" end_time="06:47:33" />
			<leg mode="car">
			</leg>
		</plan>

	</person>

<!-- ====================================================================== -->

	<person id="103" employed="no">
		<plan selected="yes">
			<act type="h" x="-1.1647248059744582E7" y="4622907.319517957" end_time="05:37:05" />
			<leg mode="car">
			</leg>
			<act type="h" x="-1.1646501016905768E7" y="4619158.643087565" end_time="05:47:48" />
			<leg mode="car">
			</leg>
		</plan>

	</person>

<!-- ====================================================================== -->

	<person id="104" employed="no">
		<plan selected="yes">
			<act type="h" x="-1.1651320471808223E7" y="4615989.059430613" end_time="05:52:46" />
			<leg mode="car">
			</leg>
			<act type="h" x="-1.1646169362746848E7" y="4618245.108771941" end_time="10:50:01" />
			<leg mode="car">
			</leg>
		</plan>

	</person>

<!-- ====================================================================== -->

	<person id="105" employed="no">
		<plan selected="yes">
			<act type="h" x="-1.16514767198455E7" y="4609479.202611988" end_time="05:35:18" />
			<leg mode="car">
			</leg>
			<act type="h" x="-1.1645323624047494E7" y="4618510.105071867" end_time="09:45:11" />
			<leg mode="car">
			</leg>
		</plan>

	</person>

<!-- ====================================================================== -->

	<person id="106" employed="no">
		<plan selected="yes">
			<act type="h" x="-1.1643940301263202E7" y="4621745.572450994" end_time="05:34:58" />
			<leg mode="car">
			</leg>
			<act type="h" x="-1.1645828391146548E7" y="4618637.940432304" end_time="06:28:35" />
			<leg mode="car">
			</leg>
		</plan>

	</person>

<!-- ====================================================================== -->

	<person id="107" employed="no">
		<plan selected="yes">
			<act type="h" x="-1.1643497527988572E7" y="4622234.798983528" end_time="05:58:03" />
			<leg mode="car">
			</leg>
			<act type="h" x="-1.1644991713853745E7" y="4618911.426933745" end_time="07:41:10" />
			<leg mode="car">
			</leg>
		</plan>

	</person>

<!-- ====================================================================== -->

	<person id="108" employed="no">
		<plan selected="yes">
			<act type="h" x="-1.1642080798225094E7" y="4621006.81907" end_time="05:51:00" />
			<leg mode="car">
			</leg>
			<act type="h" x="-1.1646332512592552E7" y="4619293.889129683" end_time="12:56:50" />
			<leg mode="car">
			</leg>
		</plan>

	</person>

<!-- ====================================================================== -->

	<person id="109" employed="no">
		<plan selected="yes">
			<act type="h" x="-1.1652963480700636E7" y="4609612.040609971" end_time="05:05:12" />
			<leg mode="car">
			</leg>
			<act type="h" x="-1.1646833773127647E7" y="4619163.776647163" end_time="09:36:07" />
			<leg mode="car">
			</leg>
		</plan>

	</person>

<!-- ====================================================================== -->

	<person id="11" employed="no">
		<plan selected="yes">
			<act type="h" x="-1.164435859538181E7" y="4617349.038456882" end_time="01:43:33" />
			<leg mode="car">
			</leg>
			<act type="h" x="-1.1646500883322379E7" y="4619293.917492256" end_time="05:43:55" />
			<leg mode="car">
			</leg>
		</plan>

	</person>

<!-- ====================================================================== -->

	<person id="110" employed="no">
		<plan selected="yes">
			<act type="h" x="-1.1654812208012037E7" y="4603531.72354029" end_time="05:40:23" />
			<leg mode="car">
			</leg>
			<act type="h" x="-1.1645354303699156E7" y="4620648.7307724105" end_time="05:54:41" />
			<leg mode="car">
			</leg>
		</plan>

	</person>

<!-- ====================================================================== -->

	<person id="111" employed="no">
		<plan selected="yes">
			<act type="h" x="-1.163356037100393E7" y="4614602.894724614" end_time="05:30:53" />
			<leg mode="car">
			</leg>
			<act type="h" x="-1.1645160529861534E7" y="4618907.711575345" end_time="09:04:32" />
			<leg mode="car">
			</leg>
		</plan>

	</person>

<!-- ====================================================================== -->

	<person id="112" employed="no">
		<plan selected="yes">
			<act type="h" x="-1.1632179218949707E7" y="4612758.120869407" end_time="05:57:29" />
			<leg mode="car">
			</leg>
			<act type="h" x="-1.1644824845937047E7" y="4619042.301997861" end_time="07:58:25" />
			<leg mode="car">
			</leg>
		</plan>

	</person>

<!-- ====================================================================== -->

	<person id="113" employed="no">
		<plan selected="yes">
			<act type="h" x="-1.1640205721590223E7" y="4614807.354483138" end_time="05:18:47" />
			<leg mode="car">
			</leg>
			<act type="h" x="-1.164650158463517E7" y="4618581.545202996" end_time="07:39:01" />
			<leg mode="car">
			</leg>
		</plan>

	</person>

<!-- ====================================================================== -->

	<person id="114" employed="no">
		<plan selected="yes">
			<act type="h" x="-1.1648176865047967E7" y="4621583.967833891" end_time="05:22:56" />
			<leg mode="car">
			</leg>
			<act type="h" x="-1.1645157446311638E7" y="4618774.838761251" end_time="12:18:19" />
			<leg mode="car">
			</leg>
		</plan>

	</person>

<!-- ====================================================================== -->

	<person id="115" employed="no">
		<plan selected="yes">
			<act type="h" x="-1.1648535514183406E7" y="4616919.860926505" end_time="06:26:15" />
			<leg mode="car">
			</leg>
			<act type="h" x="-1.1645331071321428E7" y="4619034.034513117" end_time="08:04:33" />
			<leg mode="car">
			</leg>
		</plan>

	</person>

<!-- ====================================================================== -->

	<person id="116" employed="no">
		<plan selected="yes">
			<act type="h" x="-1.1645473192915324E7" y="4617590.616418582" end_time="06:45:32" />
			<leg mode="car">
			</leg>
			<act type="h" x="-1.1645813385279188E7" y="4617584.859770179" end_time="13:19:53" />
			<leg mode="car">
			</leg>
		</plan>

	</person>

<!-- ====================================================================== -->

	<person id="117" employed="no">
		<plan selected="yes">
			<act type="h" x="-1.165104978733441E7" y="4625733.214624675" end_time="06:00:23" />
			<leg mode="car">
			</leg>
			<act type="h" x="-1.1646168205024142E7" y="4618638.181498819" end_time="07:06:16" />
			<leg mode="car">
			</leg>
		</plan>

	</person>

<!-- ====================================================================== -->

	<person id="118" employed="no">
		<plan selected="yes">
			<act type="h" x="-1.1654676164462337E7" y="4629487.723342495" end_time="06:47:35" />
			<leg mode="car">
			</leg>
			<act type="h" x="-1.1645669471441492E7" y="4619293.619685239" end_time="08:29:51" />
			<leg mode="car">
			</leg>
		</plan>

	</person>

<!-- ====================================================================== -->

	<person id="119" employed="no">
		<plan selected="yes">
			<act type="h" x="-1.1653477709956406E7" y="4626737.799575827" end_time="06:38:07" />
			<leg mode="car">
			</leg>
			<act type="h" x="-1.1645666499211088E7" y="4619029.071189271" end_time="06:55:20" />
			<leg mode="car">
			</leg>
		</plan>

	</person>

<!-- ====================================================================== -->

	<person id="12" employed="no">
		<plan selected="yes">
			<act type="h" x="-1.1639716338844795E7" y="4613649.270555064" end_time="01:58:49" />
			<leg mode="car">
			</leg>
			<act type="h" x="-1.1645874889297849E7" y="4621619.826165865" end_time="05:41:24" />
			<leg mode="car">
			</leg>
		</plan>

	</person>

<!-- ====================================================================== -->

	<person id="120" employed="no">
		<plan selected="yes">
			<act type="h" x="-1.164279819668351E7" y="4617665.594931086" end_time="06:30:56" />
			<leg mode="car">
			</leg>
			<act type="h" x="-1.1646668508211616E7" y="4618640.833230871" end_time="13:40:49" />
			<leg mode="car">
			</leg>
		</plan>

	</person>

<!-- ====================================================================== -->

	<person id="121" employed="no">
		<plan selected="yes">
			<act type="h" x="-1.1655801125840448E7" y="4631109.357299483" end_time="06:13:07" />
			<leg mode="car">
			</leg>
			<act type="h" x="-1.164565730422115E7" y="4618505.524865999" end_time="11:58:05" />
			<leg mode="car">
			</leg>
		</plan>

	</person>

<!-- ====================================================================== -->

	<person id="122" employed="no">
		<plan selected="yes">
			<act type="h" x="-1.1642260145056712E7" y="4616638.7572109215" end_time="06:21:20" />
			<leg mode="car">
			</leg>
			<act type="h" x="-1.1646001058808716E7" y="4618900.81973087" end_time="09:45:36" />
			<leg mode="car">
			</leg>
		</plan>

	</person>

<!-- ====================================================================== -->

	<person id="123" employed="no">
		<plan selected="yes">
			<act type="h" x="-1.164381831736519E7" y="4613615.169129909" end_time="06:59:19" />
			<leg mode="car">
			</leg>
			<act type="h" x="-1.1646001504086679E7" y="4618768.4858671" end_time="14:03:31" />
			<leg mode="car">
			</leg>
		</plan>

	</person>

<!-- ====================================================================== -->

	<person id="124" employed="no">
		<plan selected="yes">
			<act type="h" x="-1.1647348046911212E7" y="4612943.90710971" end_time="06:37:16" />
			<leg mode="car">
			</leg>
			<act type="h" x="-1.1645490569887836E7" y="4618509.013195982" end_time="10:18:19" />
			<leg mode="car">
			</leg>
		</plan>

	</person>

<!-- ====================================================================== -->

	<person id="125" employed="no">
		<plan selected="yes">
			<act type="h" x="-1.1651094003436152E7" y="4620786.265727803" end_time="06:05:18" />
			<leg mode="car">
			</leg>
			<act type="h" x="-1.1645325494214939E7" y="4618642.960289161" end_time="13:36:30" />
			<leg mode="car">
			</leg>
		</plan>

	</person>

<!-- ====================================================================== -->

	<person id="126" employed="no">
		<plan selected="yes">
			<act type="h" x="-1.1652307775504017E7" y="4611010.30119488" end_time="06:22:11" />
			<leg mode="car">
			</leg>
			<act type="h" x="-1.1646919678378692E7" y="4618890.8081296235" end_time="06:48:21" />
			<leg mode="car">
			</leg>
		</plan>

	</person>

<!-- ====================================================================== -->

	<person id="127" employed="no">
		<plan selected="yes">
			<act type="h" x="-1.1644758321409347E7" y="4614539.6751824" end_time="06:40:08" />
			<leg mode="car">
			</leg>
			<act type="h" x="-1.1644993862319915E7" y="4619039.111286838" end_time="10:14:45" />
			<leg mode="car">
			</leg>
		</plan>

	</person>

<!-- ====================================================================== -->

	<person id="128" employed="no">
		<plan selected="yes">
			<act type="h" x="-1.16379274457597E7" y="4611553.4048054665" end_time="06:23:48" />
			<leg mode="car">
			</leg>
			<act type="h" x="-1.1646332946738567E7" y="4618769.847201231" end_time="11:36:24" />
			<leg mode="car">
			</leg>
		</plan>

	</person>

<!-- ====================================================================== -->

	<person id="129" employed="no">
		<plan selected="yes">
			<act type="h" x="-1.1645314206418572E7" y="4618117.703678485" end_time="06:30:40" />
			<leg mode="car">
			</leg>
			<act type="h" x="-1.1644824756881453E7" y="4619112.228450835" end_time="13:55:08" />
			<leg mode="car">
			</leg>
		</plan>

	</person>

<!-- ====================================================================== -->

	<person id="13" employed="no">
		<plan selected="yes">
			<act type="h" x="-1.1645650903350426E7" y="4618112.386304849" end_time="01:24:52" />
			<leg mode="car">
			</leg>
			<act type="h" x="-1.1645162043806605E7" y="4619037.154317903" end_time="07:10:58" />
			<leg mode="car">
			</leg>
		</plan>

	</person>

<!-- ====================================================================== -->

	<person id="130" employed="no">
		<plan selected="yes">
			<act type="h" x="-1.164707750715274E7" y="4610892.83349128" end_time="06:32:39" />
			<leg mode="car">
			</leg>
			<act type="h" x="-1.1644821573144017E7" y="4618780.128115852" end_time="08:12:38" />
			<leg mode="car">
			</leg>
		</plan>

	</person>

<!-- ====================================================================== -->

	<person id="131" employed="no">
		<plan selected="yes">
			<act type="h" x="-1.1654907163537685E7" y="4624784.801992024" end_time="06:07:37" />
			<leg mode="car">
			</leg>
			<act type="h" x="-1.164650158463517E7" y="4618581.545202996" end_time="11:28:21" />
			<leg mode="car">
			</leg>
		</plan>

	</person>

<!-- ====================================================================== -->

	<person id="132" employed="no">
		<plan selected="yes">
			<act type="h" x="-1.1634367003166165E7" y="4614677.709742344" end_time="06:45:00" />
			<leg mode="car">
			</leg>
			<act type="h" x="-1.1645663304341702E7" y="4618902.025094282" end_time="07:23:01" />
			<leg mode="car">
			</leg>
		</plan>

	</person>

<!-- ====================================================================== -->

	<person id="133" employed="no">
		<plan selected="yes">
			<act type="h" x="-1.1646943712256756E7" y="4616167.276723272" end_time="06:50:36" />
			<leg mode="car">
			</leg>
			<act type="h" x="-1.1646000402023721E7" y="4619293.84658582" end_time="13:50:30" />
			<leg mode="car">
			</leg>
		</plan>

	</person>

<!-- ====================================================================== -->

	<person id="134" employed="no">
		<plan selected="yes">
			<act type="h" x="-1.1641259405098377E7" y="4613638.95223995" end_time="06:55:41" />
			<leg mode="car">
			</leg>
			<act type="h" x="-1.1645824628547758E7" y="4618503.284394521" end_time="12:02:45" />
			<leg mode="car">
			</leg>
		</plan>

	</person>

<!-- ====================================================================== -->

	<person id="135" employed="no">
		<plan selected="yes">
			<act type="h" x="-1.1647326573381439E7" y="4610821.120753896" end_time="06:26:12" />
			<leg mode="car">
			</leg>
			<act type="h" x="-1.1645813385279188E7" y="4617584.859770179" end_time="06:36:42" />
			<leg mode="car">
			</leg>
		</plan>

	</person>

<!-- ====================================================================== -->

	<person id="136" employed="no">
		<plan selected="yes">
			<act type="h" x="-1.1654882205707848E7" y="4615348.390114992" end_time="06:41:15" />
			<leg mode="car">
			</leg>
			<act type="h" x="-1.1646167960121265E7" y="4619622.531511252" end_time="13:49:47" />
			<leg mode="car">
			</leg>
		</plan>

	</person>

<!-- ====================================================================== -->

	<person id="137" employed="no">
		<plan selected="yes">
			<act type="h" x="-1.1645396304543033E7" y="4613970.603366283" end_time="06:31:23" />
			<leg mode="car">
			</leg>
			<act type="h" x="-1.1645499286203966E7" y="4619162.854875222" end_time="10:55:03" />
			<leg mode="car">
			</leg>
		</plan>

	</person>

<!-- ====================================================================== -->

	<person id="138" employed="no">
		<plan selected="yes">
			<act type="h" x="-1.164123144164229E7" y="4618118.767153544" end_time="07:48:18" />
			<leg mode="car">
			</leg>
			<act type="h" x="-1.1646334048801526E7" y="4619032.091726074" end_time="11:13:58" />
			<leg mode="car">
			</leg>
		</plan>

	</person>

<!-- ====================================================================== -->

	<person id="139" employed="no">
		<plan selected="yes">
			<act type="h" x="-1.1646372865907967E7" y="4625335.01795552" end_time="07:43:26" />
			<leg mode="car">
			</leg>
			<act type="h" x="-1.16454892006581E7" y="4618377.7195096025" end_time="10:26:24" />
			<leg mode="car">
			</leg>
		</plan>

	</person>

<!-- ====================================================================== -->

	<person id="14" employed="no">
		<plan selected="yes">
			<act type="h" x="-1.1644853811268551E7" y="4615559.286461417" end_time="01:28:19" />
			<leg mode="car">
			</leg>
			<act type="h" x="-1.1646332512592552E7" y="4619293.889129683" end_time="09:20:54" />
			<leg mode="car">
			</leg>
		</plan>

	</person>

<!-- ====================================================================== -->

	<person id="140" employed="no">
		<plan selected="yes">
			<act type="h" x="-1.1650223395962557E7" y="4613443.926688751" end_time="07:43:35" />
			<leg mode="car">
			</leg>
			<act type="h" x="-1.164533249621091E7" y="4619163.663198303" end_time="12:44:02" />
			<leg mode="car">
			</leg>
		</plan>

	</person>

<!-- ====================================================================== -->

	<person id="141" employed="no">
		<plan selected="yes">
			<act type="h" x="-1.164890456055928E7" y="4615061.092077709" end_time="07:53:35" />
			<leg mode="car">
			</leg>
			<act type="h" x="-1.1645155865574868E7" y="4618645.626202837" end_time="15:27:57" />
			<leg mode="car">
			</leg>
		</plan>

	</person>

<!-- ====================================================================== -->

	<person id="142" employed="no">
		<plan selected="yes">
			<act type="h" x="-1.164856298783373E7" y="4615489.2707205005" end_time="07:23:54" />
			<leg mode="car">
			</leg>
			<act type="h" x="-1.1644508064062094E7" y="4618391.105461684" end_time="07:42:41" />
			<leg mode="car">
			</leg>
		</plan>

	</person>

<!-- ====================================================================== -->

	<person id="143" employed="no">
		<plan selected="yes">
			<act type="h" x="-1.1638670380909303E7" y="4615629.04750589" end_time="07:32:36" />
			<leg mode="car">
			</leg>
			<act type="h" x="-1.1646167960121265E7" y="4619622.531511252" end_time="09:26:23" />
			<leg mode="car">
			</leg>
		</plan>

	</person>

<!-- ====================================================================== -->

	<person id="144" employed="no">
		<plan selected="yes">
			<act type="h" x="-1.164126212129395E7" y="4613415.65112487" end_time="07:12:13" />
			<leg mode="car">
			</leg>
			<act type="h" x="-1.1645162043806605E7" y="4619037.154317903" end_time="13:16:07" />
			<leg mode="car">
			</leg>
		</plan>

	</person>

<!-- ====================================================================== -->

	<person id="145" employed="no">
		<plan selected="yes">
			<act type="h" x="-1.1653147981624678E7" y="4625666.336599957" end_time="07:30:45" />
			<leg mode="car">
			</leg>
			<act type="h" x="-1.1645323624047494E7" y="4618510.105071867" end_time="07:32:07" />
			<leg mode="car">
			</leg>
		</plan>

	</person>

<!-- ====================================================================== -->

	<person id="146" employed="no">
		<plan selected="yes">
			<act type="h" x="-1.1651277157394355E7" y="4626242.810223096" end_time="07:03:34" />
			<leg mode="car">
			</leg>
			<act type="h" x="-1.1646668775378395E7" y="4618767.549949986" end_time="14:41:38" />
			<leg mode="car">
			</leg>
		</plan>

	</person>

<!-- ====================================================================== -->

	<person id="147" employed="no">
		<plan selected="yes">
			<act type="h" x="-1.1644331433426052E7" y="4620158.8279533535" end_time="07:55:20" />
			<leg mode="car">
			</leg>
			<act type="h" x="-1.1644508064062094E7" y="4618391.105461684" end_time="13:53:36" />
			<leg mode="car">
			</leg>
		</plan>

	</person>

<!-- ====================================================================== -->

	<person id="148" employed="no">
		<plan selected="yes">
			<act type="h" x="-1.1648529480667002E7" y="4616016.392214294" end_time="07:01:43" />
			<leg mode="car">
			</leg>
			<act type="h" x="-1.1644815573023463E7" y="4618516.854852655" end_time="07:11:53" />
			<leg mode="car">
			</leg>
		</plan>

	</person>

<!-- ====================================================================== -->

	<person id="149" employed="no">
		<plan selected="yes">
			<act type="h" x="-1.1632201649827102E7" y="4619541.341373736" end_time="07:04:45" />
			<leg mode="car">
			</leg>
			<act type="h" x="-1.1646001993892439E7" y="4619031.581212746" end_time="13:39:11" />
			<leg mode="car">
			</leg>
		</plan>

	</person>

<!-- ====================================================================== -->

	<person id="15" employed="no">
		<plan selected="yes">
			<act type="h" x="-1.1650082420959415E7" y="4604476.524816779" end_time="01:09:35" />
			<leg mode="car">
			</leg>
			<act type="h" x="-1.1644677726098012E7" y="4618781.149117588" end_time="02:03:32" />
			<leg mode="car">
			</leg>
		</plan>

	</person>

<!-- ====================================================================== -->

	<person id="150" employed="no">
		<plan selected="yes">
			<act type="h" x="-1.1648370627753641E7" y="4624514.082192443" end_time="07:06:36" />
			<leg mode="car">
			</leg>
			<act type="h" x="-1.1645493831548918E7" y="4618770.726396286" end_time="11:35:48" />
			<leg mode="car">
			</leg>
		</plan>

	</person>

<!-- ====================================================================== -->

	<person id="151" employed="no">
		<plan selected="yes">
			<act type="h" x="-1.1641085368206471E7" y="4619825.1621970385" end_time="07:42:44" />
			<leg mode="car">
			</leg>
			<act type="h" x="-1.1645490514228093E7" y="4618640.804870096" end_time="07:53:07" />
			<leg mode="car">
			</leg>
		</plan>

	</person>

<!-- ====================================================================== -->

	<person id="152" employed="no">
		<plan selected="yes">
			<act type="h" x="-1.1649001809266437E7" y="4613247.9835858" end_time="07:43:25" />
			<leg mode="car">
			</leg>
			<act type="h" x="-1.1646500560495855E7" y="4619621.708970404" end_time="15:41:52" />
			<leg mode="car">
			</leg>
		</plan>

	</person>

<!-- ====================================================================== -->

	<person id="153" employed="no">
		<plan selected="yes">
			<act type="h" x="-1.1638762230621157E7" y="4608333.54590563" end_time="07:26:54" />
			<leg mode="car">
			</leg>
			<act type="h" x="-1.16460030736915E7" y="4618378.910631751" end_time="09:09:01" />
			<leg mode="car">
			</leg>
		</plan>

	</person>

<!-- ====================================================================== -->

	<person id="154" employed="no">
		<plan selected="yes">
			<act type="h" x="-1.164275405850541E7" y="4616003.803246822" end_time="07:58:55" />
			<leg mode="car">
			</leg>
			<act type="h" x="-1.1645157446311638E7" y="4618774.838761251" end_time="12:30:05" />
			<leg mode="car">
			</leg>
		</plan>

	</person>

<!-- ====================================================================== -->

	<person id="155" employed="no">
		<plan selected="yes">
			<act type="h" x="-1.164428071626605E7" y="4617746.926249504" end_time="07:02:39" />
			<leg mode="car">
			</leg>
			<act type="h" x="-1.1644648003793972E7" y="4618650.064667028" end_time="11:07:21" />
			<leg mode="car">
			</leg>
		</plan>

	</person>

<!-- ====================================================================== -->

	<person id="156" employed="no">
		<plan selected="yes">
			<act type="h" x="-1.164914298464466E7" y="4619034.218865192" end_time="07:08:45" />
			<leg mode="car">
			</leg>
			<act type="h" x="-1.1645326017416546E7" y="4618770.967465909" end_time="09:56:51" />
			<leg mode="car">
			</leg>
		</plan>

	</person>

<!-- ====================================================================== -->

	<person id="157" employed="no">
		<plan selected="yes">
			<act type="h" x="-1.1640371342728624E7" y="4618620.300050788" end_time="07:00:21" />
			<leg mode="car">
			</leg>
			<act type="h" x="-1.1646169496330235E7" y="4618770.953285344" end_time="13:53:00" />
			<leg mode="car">
			</leg>
		</plan>

	</person>

<!-- ====================================================================== -->

	<person id="158" employed="no">
		<plan selected="yes">
			<act type="h" x="-1.1632567701708676E7" y="4611506.301723153" end_time="07:02:39" />
			<leg mode="car">
			</leg>
			<act type="h" x="-1.1645658528735545E7" y="4618642.577418637" end_time="14:40:52" />
			<leg mode="car">
			</leg>
		</plan>

	</person>

<!-- ====================================================================== -->

	<person id="159" employed="no">
		<plan selected="yes">
			<act type="h" x="-1.1647353957976175E7" y="4613457.533002779" end_time="07:11:08" />
			<leg mode="car">
			</leg>
			<act type="h" x="-1.1644989621047316E7" y="4618647.625638546" end_time="12:55:11" />
			<leg mode="car">
			</leg>
		</plan>

	</person>

<!-- ====================================================================== -->

	<person id="16" employed="no">
		<plan selected="yes">
			<act type="h" x="-1.164482480140925E7" y="4615874.1434479095" end_time="01:12:56" />
			<leg mode="car">
			</leg>
			<act type="h" x="-1.16454892006581E7" y="4618377.7195096025" end_time="01:17:39" />
			<leg mode="car">
			</leg>
		</plan>

	</person>

<!-- ====================================================================== -->

	<person id="160" employed="no">
		<plan selected="yes">
			<act type="h" x="-1.1639994904738558E7" y="4618820.301774454" end_time="07:42:43" />
			<leg mode="car">
			</leg>
			<act type="h" x="-1.164650158463517E7" y="4618581.545202996" end_time="15:30:15" />
			<leg mode="car">
			</leg>
		</plan>

	</person>

<!-- ====================================================================== -->

	<person id="161" employed="no">
		<plan selected="yes">
			<act type="h" x="-1.1646346438660853E7" y="4619671.033174022" end_time="07:15:39" />
			<leg mode="car">
			</leg>
			<act type="h" x="-1.1645326017416546E7" y="4618770.967465909" end_time="14:50:42" />
			<leg mode="car">
			</leg>
		</plan>

	</person>

<!-- ====================================================================== -->

	<person id="162" employed="no">
		<plan selected="yes">
			<act type="h" x="-1.1632179218949707E7" y="4612758.120869407" end_time="07:35:12" />
			<leg mode="car">
			</leg>
			<act type="h" x="-1.1645828391146548E7" y="4618637.940432304" end_time="12:22:15" />
			<leg mode="car">
			</leg>
		</plan>

	</person>

<!-- ====================================================================== -->

	<person id="163" employed="no">
		<plan selected="yes">
			<act type="h" x="-1.1650398033979712E7" y="4614370.316759808" end_time="07:41:12" />
			<leg mode="car">
			</leg>
			<act type="h" x="-1.1644750139426775E7" y="4618913.6533132745" end_time="11:28:00" />
			<leg mode="car">
			</leg>
		</plan>

	</person>

<!-- ====================================================================== -->

	<person id="164" employed="no">
		<plan selected="yes">
			<act type="h" x="-1.1633588078425186E7" y="4612411.614174222" end_time="07:11:41" />
			<leg mode="car">
			</leg>
			<act type="h" x="-1.1645837252178015E7" y="4619159.096882787" end_time="10:13:54" />
			<leg mode="car">
			</leg>
		</plan>

	</person>

<!-- ====================================================================== -->

	<person id="165" employed="no">
		<plan selected="yes">
			<act type="h" x="-1.1632026310497154E7" y="4618397.103621705" end_time="07:29:24" />
			<leg mode="car">
			</leg>
			<act type="h" x="-1.1644508064062094E7" y="4618391.105461684" end_time="12:29:12" />
			<leg mode="car">
			</leg>
		</plan>

	</person>

<!-- ====================================================================== -->

	<person id="166" employed="no">
		<plan selected="yes">
			<act type="h" x="-1.164480884932622E7" y="4617996.184651941" end_time="07:24:00" />
			<leg mode="car">
			</leg>
			<act type="h" x="-1.1646332623912044E7" y="4619158.82744187" end_time="11:53:29" />
			<leg mode="car">
			</leg>
		</plan>

	</person>

<!-- ====================================================================== -->

	<person id="167" employed="no">
		<plan selected="yes">