<?xml version="1.0" encoding="UTF-8"?>
<!DOCTYPE network SYSTEM "http://www.matsim.org/files/dtd/network_v1.dtd">
<network>

<!-- ====================================================================== -->

	<nodes>
		<node id="1858043602" x="-8203407.389670459" y="5007996.303392542" />
		<node id="2280327167" x="-8202654.079544311" y="5007548.365352756" />
		<node id="2280327171" x="-8202613.069443904" y="5007731.5599794835" />
		<node id="2280327181" x="-8202610.0749496" y="5007613.675772784" />
		<node id="2280432475" x="-8202336.607488518" y="5009358.658343262" />
		<node id="2292011560" x="-8203845.442998679" y="5008496.86903256" />
		<node id="2292017710" x="-8203086.923120363" y="5007739.653882501" />
		<node id="2292017726" x="-8203036.417467389" y="5007912.266444796" />
		<node id="2292017744" x="-8203033.734667661" y="5007582.03775835" />
		<node id="2292021638" x="-8202807.199503898" y="5006795.145281841" />
		<node id="2292025706" x="-8202357.479893044" y="5007587.993835222" />
		<node id="2292025717" x="-8202446.891708047" y="5007449.309595401" />
		<node id="2292029039" x="-8202425.329122679" y="5007378.324433414" />
		<node id="254120735" x="-8203045.556797584" y="5006474.123459989" />
		<node id="254120736" x="-8203035.538043412" y="5006544.586083411" />
		<node id="254121901" x="-8203725.607566841" y="5006447.589549958" />
		<node id="254121902" x="-8203682.19296543" y="5006415.306723664" />
		<node id="254126824" x="-8203787.167245249" y="5007164.030521492" />
		<node id="254126853" x="-8203814.440520492" y="5007001.131386702" />
		<node id="254129103" x="-8202478.6066309735" y="5006240.185313262" />
		<node id="254129111" x="-8202465.24829208" y="5006228.097924786" />
		<node id="254133732" x="-8202763.584527404" y="5005416.950546899" />
		<node id="254133748" x="-8202579.573409123" y="5005486.078952446" />
		<node id="254134645" x="-8202836.053515911" y="5005194.534339333" />
		<node id="254134650" x="-8202978.876422599" y="5005241.994495091" />
		<node id="254136306" x="-8202722.507635304" y="5006218.516468986" />
		<node id="254136308" x="-8202713.490756547" y="5006263.180874254" />
		<node id="254137446" x="-8203851.098028811" y="5008505.0372931855" />
		<node id="254138006" x="-8203360.813595509" y="5008085.457067416" />
		<node id="254138007" x="-8203341.889282075" y="5008119.07235788" />
		<node id="254144301" x="-8203927.852817712" y="5007230.045988243" />
		<node id="254146609" x="-8203697.031853554" y="5008031.495923" />
		<node id="254147899" x="-8203307.046281457" y="5007759.1883756295" />
		<node id="254147900" x="-8203295.246415434" y="5007783.661833698" />
		<node id="254148101" x="-8203412.2432002565" y="5006380.075816285" />
		<node id="254148103" x="-8203370.721030191" y="5006355.311070714" />
		<node id="254148907" x="-8203914.739381697" y="5008759.554294712" />
		<node id="254148909" x="-8203730.783923162" y="5008555.565657117" />
		<node id="254148911" x="-8203604.848183229" y="5008378.341560511" />
		<node id="254152835" x="-8201473.725587584" y="5008891.96120779" />
		<node id="254152847" x="-8201606.084462136" y="5008946.516919028" />
		<node id="254153882" x="-8201557.3265251685" y="5007225.947650112" />
		<node id="254161992" x="-8202667.849765321" y="5005321.144400174" />
		<node id="254161993" x="-8202668.517682267" y="5005313.77473565" />
		<node id="254162617" x="-8202553.85860675" y="5008670.055319831" />
		<node id="254162618" x="-8202424.505358448" y="5008639.681884546" />
		<node id="254169282" x="-8203733.399931196" y="5008457.915075348" />
		<node id="254170841" x="-8203734.368410765" y="5008477.3772903355" />
		<node id="254174768" x="-8202780.282451024" y="5005368.752567492" />
		<node id="254178935" x="-8202111.252311355" y="5008743.630199417" />
		<node id="254178979" x="-8202137.189752711" y="5008669.465543488" />
		<node id="254179332" x="-8204393.079233637" y="5006854.1559559675" />
		<node id="254179431" x="-8202647.812256979" y="5008277.124754356" />
		<node id="254179443" x="-8202425.061955902" y="5008191.463575206" />
		<node id="254179449" x="-8202325.7649701135" y="5008104.476230646" />
		<node id="254179455" x="-8202051.139786328" y="5008001.566783431" />
		<node id="254179456" x="-8201854.215607115" y="5007942.593378885" />
		<node id="254179774" x="-8202850.781084544" y="5008642.409592092" />
		<node id="254179777" x="-8202825.411372591" y="5008597.203467386" />
		<node id="254179783" x="-8202583.135632829" y="5008463.783223947" />
		<node id="254179797" x="-8202801.321834784" y="5008692.4373585675" />
		<node id="254182430" x="-8202924.841941767" y="5007819.723438936" />
		<node id="254182431" x="-8202901.821071072" y="5007698.344087353" />
		<node id="254185417" x="-8204301.363105171" y="5007047.833773783" />
		<node id="254185422" x="-8204171.631370602" y="5007218.0605654" />
		<node id="254185427" x="-8204077.811303761" y="5007426.576596185" />
		<node id="254185431" x="-8203992.540573813" y="5007747.320244939" />
		<node id="254185436" x="-8203810.221511791" y="5007936.297989068" />
		<node id="254185443" x="-8203434.69634155" y="5008226.995917687" />
		<node id="254185445" x="-8203152.26766146" y="5008428.102576079" />
		<node id="254185478" x="-8202434.290341688" y="5009494.509150472" />
		<node id="254188338" x="-8202005.832753575" y="5007566.056619626" />
		<node id="254188339" x="-8202199.150181287" y="5007624.2021433655" />
		<node id="254188340" x="-8202318.584862959" y="5007659.349099061" />
		<node id="254189580" x="-8201823.380108166" y="5008020.14347991" />
		<node id="254189581" x="-8201729.871735898" y="5007989.477206366" />
		<node id="254191902" x="-8203750.309361848" y="5007877.207034543" />
		<node id="254191903" x="-8203651.24614699" y="5007802.975268774" />
		<node id="254191904" x="-8203552.060480693" y="5007769.508501045" />
		<node id="254191905" x="-8203449.646549163" y="5007736.18927838" />
		<node id="254191913" x="-8203436.844807723" y="5007763.758715533" />
		<node id="254191931" x="-8202815.570729605" y="5005264.987697265" />
		<node id="254191937" x="-8202464.357736154" y="5005112.879830436" />
		<node id="254191943" x="-8202313.742465109" y="5005366.541656735" />
		<node id="254191959" x="-8202421.83369067" y="5004942.645647726" />
		<node id="254194019" x="-8203936.001404439" y="5007048.747774756" />
		<node id="254194026" x="-8203887.800064925" y="5006897.496524166" />
		<node id="254194028" x="-8203787.723842703" y="5006853.566289706" />
		<node id="254194082" x="-8203614.510715027" y="5006938.036346053" />
		<node id="254200427" x="-8203667.498792646" y="5006441.840545656" />
		<node id="254200429" x="-8203738.743266753" y="5006492.84465116" />
		<node id="254201476" x="-8204369.145543116" y="5008432.673230273" />
		<node id="254201481" x="-8204205.394572159" y="5008463.635782987" />
		<node id="254201483" x="-8204167.701792578" y="5008439.942049271" />
		<node id="254201484" x="-8204355.45324575" y="5008239.822977772" />
		<node id="254202705" x="-8202552.634092351" y="5006472.796762768" />
		<node id="254202706" x="-8202569.665974443" y="5006380.812863248" />
		<node id="254204253" x="-8203627.167741131" y="5008620.499487147" />
		<node id="254204258" x="-8203607.1858925335" y="5008705.958022206" />
		<node id="254204259" x="-8203634.592751169" y="5008582.473924184" />
		<node id="254204298" x="-8201946.722103963" y="5007713.19023551" />
		<node id="254204300" x="-8201624.452178116" y="5007603.208384765" />
		<node id="254209054" x="-8204657.674531304" y="5007633.814469305" />
		<node id="254209204" x="-8202173.145948238" y="5007137.052467277" />
		<node id="254209213" x="-8202511.000602794" y="5007157.986251477" />
		<node id="254209215" x="-8202541.056865309" y="5007071.155567419" />
		<node id="254210399" x="-8202083.188667728" y="5007399.008114574" />
		<node id="254210400" x="-8202233.225077418" y="5007445.432303188" />
		<node id="254210401" x="-8202333.991480484" y="5007471.069636634" />
		<node id="254210402" x="-8202386.890502509" y="5007487.389699494" />
		<node id="254210403" x="-8202400.883362501" y="5007491.075354338" />
		<node id="254211276" x="-8202095.110985192" y="5007887.453569048" />
		<node id="254211277" x="-8202146.729833072" y="5007756.947435557" />
		<node id="254211522" x="-8202777.310220619" y="5008063.032194823" />
		<node id="254211527" x="-8202823.329698114" y="5007919.018860442" />
		<node id="254211528" x="-8202826.75833843" y="5007884.593384231" />
		<node id="254211530" x="-8202827.927193084" y="5007796.9158586785" />
		<node id="254211531" x="-8202824.44289302" y="5007768.5207171375" />
		<node id="254211532" x="-8202811.63001963" y="5007690.898907381" />
		<node id="254211533" x="-8202809.22551863" y="5007677.8071988" />
		<node id="254211534" x="-8202792.53872696" y="5007588.170748449" />
		<node id="254211535" x="-8202784.178633202" y="5007543.544488114" />
		<node id="254211536" x="-8202774.616288942" y="5007491.355464163" />
		<node id="254211538" x="-8202765.710729679" y="5007394.437946029" />
		<node id="254211542" x="-8202748.701111486" y="5007219.210457727" />
		<node id="254211545" x="-8202770.965009644" y="5007162.792182943" />
		<node id="254211546" x="-8202859.1634422" y="5007018.541562242" />
		<node id="254211549" x="-8202898.292243214" y="5006855.689088421" />
		<node id="254211551" x="-8202910.904741521" y="5006768.757911593" />
		<node id="254211553" x="-8202962.067179489" y="5006595.148489581" />
		<node id="254211554" x="-8202964.961486251" y="5006572.29955629" />
		<node id="254211555" x="-8202969.080307408" y="5006538.542198213" />
		<node id="254211556" x="-8202980.43489547" y="5006445.673214814" />
		<node id="254211557" x="-8202993.459275894" y="5006338.801275354" />
		<node id="254211559" x="-8203013.274145255" y="5006187.70846734" />
		<node id="254211567" x="-8203097.654319274" y="5005803.722181782" />
		<node id="254211951" x="-8201803.008641349" y="5008893.583129926" />
		<node id="254211952" x="-8201751.579036604" y="5008876.331790152" />
		<node id="254211955" x="-8201457.9182198895" y="5008934.573615538" />
		<node id="254211956" x="-8201737.107502801" y="5009015.670408993" />
		<node id="254212462" x="-8203295.357734924" y="5006681.532683573" />
		<node id="254212463" x="-8203189.826857652" y="5006616.228520782" />
		<node id="254212466" x="-8203140.846281703" y="5006803.739619558" />
		<node id="254212467" x="-8203120.474814888" y="5006853.566289706" />
		<node id="254212795" x="-8201668.979974434" y="5008383.57567017" />
		<node id="254212803" x="-8201293.944609953" y="5008242.771729604" />
		<node id="254212808" x="-8201282.144743929" y="5008234.957539197" />
		<node id="254214768" x="-8203098.144125035" y="5007215.6723279245" />
		<node id="254214784" x="-8203449.969375688" y="5006895.683292445" />
		<node id="254215591" x="-8203551.169924768" y="5006700.254273841" />
		<node id="254221827" x="-8201720.40957918" y="5008261.938638324" />
		<node id="254221838" x="-8201904.08673899" y="5008269.900288435" />
		<node id="254223041" x="-8202655.381982353" y="5006249.766790401" />
		<node id="254223514" x="-8203585.567647422" y="5006343.370948051" />
		<node id="254223515" x="-8203469.461418525" y="5006534.414669015" />
		<node id="254224722" x="-8203544.23472049" y="5008429.444284024" />
		<node id="254224724" x="-8203492.237386341" y="5008523.098904656" />
		<node id="254224732" x="-8203470.530085636" y="5008847.004582753" />
		<node id="254224738" x="-8203708.174934582" y="5009001.382579403" />
		<node id="254225880" x="-8201676.994977771" y="5008364.555961229" />
		<node id="254225891" x="-8201956.963497117" y="5008464.667869776" />
		<node id="254225892" x="-8201963.08606911" y="5008456.263737689" />
		<node id="254226524" x="-8202824.253649887" y="5006540.163728018" />
		<node id="254226526" x="-8202650.817883231" y="5006497.414396207" />
		<node id="254226527" x="-8202629.444540999" y="5006492.255006797" />
		<node id="254226528" x="-8202493.078164776" y="5006457.613463019" />
		<node id="254226529" x="-8202453.003148091" y="5006447.884370785" />
		<node id="254226530" x="-8202354.4853987405" y="5006424.593553129" />
		<node id="254226535" x="-8202008.949699318" y="5006337.327187842" />
		<node id="254228323" x="-8202870.785197038" y="5005081.485770196" />
		<node id="254228325" x="-8202720.281245486" y="5005034.46856423" />
		<node id="254229994" x="-8202849.077896334" y="5006161.175338361" />
		<node id="254230002" x="-8202803.993502563" y="5006007.284617101" />
		<node id="254230004" x="-8202562.096249069" y="5005890.541555535" />
		<node id="254230190" x="-8203302.148223863" y="5006664.43267985" />
		<node id="254230191" x="-8203353.243870136" y="5006701.4335878175" />
		<node id="254233218" x="-8199945.642937464" y="5008389.473261892" />
		<node id="254233440" x="-8202678.091158477" y="5005638.1926529305" />
		<node id="254233441" x="-8202601.392029319" y="5005602.374968725" />
		<node id="254233442" x="-8202591.70723362" y="5005620.357493288" />
		<node id="254237795" x="-8202394.894373897" y="5007877.280750582" />
		<node id="254237797" x="-8202583.747890027" y="5007934.219184427" />
		<node id="254238952" x="-8201537.133169539" y="5008729.740870915" />
		<node id="254238958" x="-8201286.219037292" y="5008659.365629122" />
		<node id="254240475" x="-8204005.242127713" y="5007198.674580614" />
		<node id="254240476" x="-8204020.158939479" y="5007195.431301759" />
		<node id="254240585" x="-8203984.236139799" y="5007385.03225107" />
		<node id="254240593" x="-8203951.47481366" y="5007622.226605163" />
		<node id="254240594" x="-8203948.246548427" y="5007644.488290219" />
		<node id="254241902" x="-8202676.087407642" y="5006392.16339356" />
		<node id="254242719" x="-8202997.912055524" y="5006779.121211042" />
		<node id="254242721" x="-8203014.832618126" y="5006702.465487666" />
		<node id="254243394" x="-8202480.721701299" y="5007048.305516211" />
		<node id="254243395" x="-8202516.455257844" y="5006890.567916967" />
		<node id="254243396" x="-8202537.049363641" y="5006795.336922221" />
		<node id="254243397" x="-8202555.30576013" y="5006696.863746946" />
		<node id="254243398" x="-8202578.126255743" y="5006701.4335878175" />
		<node id="254243400" x="-8202603.8410581155" y="5006597.507092201" />
		<node id="254251170" x="-8202752.441446377" y="5007861.593990493" />
		<node id="254251228" x="-8202746.218686841" y="5008011.73973187" />
		<node id="254251890" x="-8203782.046548673" y="5006461.888370263" />
		<node id="254251893" x="-8203510.482650882" y="5006917.722188736" />
		<node id="254251894" x="-8203660.819623198" y="5006656.177516396" />
		<node id="254253826" x="-8203744.754519257" y="5007398.285732951" />
		<node id="254253827" x="-8203691.209844186" y="5007623.111174458" />
		<node id="254254948" x="-8201233.2754874695" y="5009710.9188491125" />
		<node id="254538939" x="-8203180.1420619525" y="5004652.443763371" />
		<node id="254538945" x="-8203149.083924022" y="5004749.27501976" />
		<node id="254547242" x="-8203887.454974504" y="5007360.736704914" />
		<node id="254560286" x="-8202744.359651345" y="5007150.747874521" />
		<node id="254560289" x="-8202610.208532988" y="5007095.2145180525" />
		<node id="254560290" x="-8202368.845613052" y="5007005.996208229" />
		<node id="254560291" x="-8202233.035834284" y="5006962.065483853" />
		<node id="254560304" x="-8201946.0541870175" y="5006904.425136303" />
		<node id="254564854" x="-8202362.277763096" y="5007985.201627827" />
		<node id="254564889" x="-8202514.5628265" y="5008067.912290901" />
		<node id="254569045" x="-8202036.812967863" y="5008934.927490992" />
		<node id="254569047" x="-8201957.598018216" y="5008902.88707032" />
		<node id="254570611" x="-8203482.374479456" y="5006277.626831389" />
		<node id="254573079" x="-8203433.727861981" y="5006341.30722463" />
		<node id="254573084" x="-8203378.290755565" y="5006246.3764204895" />
		<node id="254573748" x="-8202525.472136598" y="5005970.1389455795" />
		<node id="254573756" x="-8202309.401004967" y="5005973.381816017" />
		<node id="254574724" x="-8201784.418286387" y="5008118.924922141" />
		<node id="254574730" x="-8201674.6572684655" y="5008102.264698129" />
		<node id="254574759" x="-8201522.594844042" y="5008171.412186117" />
		<node id="254575755" x="-8204209.691504502" y="5007002.354962797" />
		<node id="254575756" x="-8204249.811048985" y="5006921.230726665" />
		<node id="254592082" x="-8202825.032886322" y="5005901.301905389" />
		<node id="254592088" x="-8202861.990957265" y="5005667.082732956" />
		<node id="254592094" x="-8202889.598190984" y="5005502.292508854" />
		<node id="254592095" x="-8202897.724513811" y="5005459.842527488" />
		<node id="254598220" x="-8202415.599799185" y="5006223.380899211" />
		<node id="254602728" x="-8203372.724781024" y="5006478.693196243" />
		<node id="254602729" x="-8203569.982918711" y="5006596.327790817" />
		<node id="254602730" x="-8203700.44936192" y="5006683.596479159" />
		<node id="254612707" x="-8203027.790206852" y="5004600.373411512" />
		<node id="254612725" x="-8202729.632082713" y="5004210.598903799" />
		<node id="254615213" x="-8202952.671814467" y="5007826.269386518" />
		<node id="254615216" x="-8202951.469563965" y="5007882.956887109" />
		<node id="254616912" x="-8202923.327996694" y="5004905.651427014" />
		<node id="254616913" x="-8203054.128398375" y="5004976.10269354" />
		<node id="254620327" x="-8202918.986536553" y="5006320.375197536" />
		<node id="254620332" x="-8202816.572605021" y="5006292.957258339" />
		<node id="254620769" x="-8203791.286066408" y="5007653.039149678" />
		<node id="254620771" x="-8203595.920360067" y="5007593.330719077" />
		<node id="254620772" x="-8203494.508303954" y="5007563.550354864" />
		<node id="254620773" x="-8203385.971800429" y="5007534.064935557" />
		<node id="254621069" x="-8203323.2989271125" y="5006603.698426798" />
		<node id="254621070" x="-8203236.803682767" y="5006566.697890512" />
		<node id="254621071" x="-8203196.394707609" y="5006545.617966621" />
		<node id="254628622" x="-8202149.668667629" y="5007208.743494127" />
		<node id="254628640" x="-8202445.1773878895" y="5007385.179675686" />
		<node id="254628789" x="-8203101.10522349" y="5005458.958154845" />
		<node id="254633822" x="-8202904.292363768" y="5006428.131395256" />
		<node id="254633823" x="-8202799.318083948" y="5006447.294729142" />
		<node id="254633828" x="-8202907.40930951" y="5006400.56574271" />
		<node id="254635878" x="-8203709.199073898" y="5008303.825837218" />
		<node id="254635880" x="-8203975.864914092" y="5008680.538600337" />
		<node id="254635882" x="-8204093.652067302" y="5008805.409936979" />
		<node id="254636625" x="-8202766.545625859" y="5006990.546722812" />
		<node id="254636631" x="-8202684.992966905" y="5006925.063584671" />
		<node id="254636636" x="-8202692.674011769" y="5006830.569333313" />
		<node id="254636637" x="-8202715.483375434" y="5006728.20405359" />
		<node id="254640083" x="-8201328.687423027" y="5008548.001867231" />
		<node id="254640086" x="-8201375.330289671" y="5008442.994070225" />
		<node id="254641349" x="-8202776.364004947" y="5006740.616376038" />
		<node id="254641350" x="-8202801.5444737645" y="5006641.436170503" />
		<node id="254646242" x="-8202800.1307162335" y="5006836.819782748" />
		<node id="254651670" x="-8203774.064941183" y="5008971.229282437" />
		<node id="254651673" x="-8203794.113581474" y="5008912.073061402" />
		<node id="254651674" x="-8203865.480507022" y="5008821.5995369125" />
		<node id="254655956" x="-8202804.772738999" y="5006375.358717031" />
		<node id="254660433" x="-8203195.838110155" y="5005839.835409542" />
		<node id="254660435" x="-8203200.958806731" y="5005831.433544589" />
		<node id="254665367" x="-8203439.438551858" y="5008454.435471317" />
		<node id="254665378" x="-8203631.609388815" y="5008359.985339043" />
		<node id="254665380" x="-8203679.777332482" y="5008325.971131064" />
		<node id="254665400" x="-8203926.594907467" y="5007980.999767994" />
		<node id="254665449" x="-8202534.756182131" y="5010108.729478757" />
		<node id="254666858" x="-8202192.849498106" y="5008515.3876982685" />
		<node id="254666863" x="-8202394.003817971" y="5008565.665463701" />
		<node id="254667528" x="-8201564.0056946175" y="5007790.296215468" />
		<node id="254667533" x="-8201602.188279958" y="5007701.395875638" />
		<node id="254667537" x="-8201653.061287251" y="5007504.432179189" />
		<node id="254667562" x="-8201696.987958319" y="5007414.988978888" />
		<node id="254667587" x="-8201755.931628693" y="5007320.94698216" />
		<node id="254668728" x="-8202995.028880713" y="5007514.383467902" />
		<node id="254676004" x="-8203245.1526445765" y="5005175.078690198" />
		<node id="254676006" x="-8203403.2263215035" y="5005260.418530969" />
		<node id="254684425" x="-8202644.483804204" y="5007629.627504079" />
		<node id="254684460" x="-8202620.5055858875" y="5007707.455226236" />
		<node id="254692034" x="-8203824.681913646" y="5007390.914494971" />
		<node id="254692041" x="-8203805.534961231" y="5007589.645025494" />
		<node id="254692051" x="-8203818.448022163" y="5007788.969338754" />
		<node id="254692055" x="-8203838.151572032" y="5007785.578432415" />
		<node id="254706563" x="-8202648.480173923" y="5005708.796622277" />
		<node id="254706571" x="-8202723.286871738" y="5005737.097313321" />
		<node id="254721103" x="-8203413.033568641" y="5009135.178825227" />
		<node id="254721230" x="-8204547.657478553" y="5008401.843472142" />
		<node id="254721255" x="-8204591.6843371615" y="5008362.137954384" />
		<node id="254735494" x="-8203912.958269846" y="5007101.229265008" />
		<node id="254735495" x="-8203908.282851233" y="5007117.150671954" />
		<node id="254735751" x="-8201549.879251234" y="5008699.868560686" />
		<node id="254735790" x="-8201787.535232129" y="5008791.255117583" />
		<node id="254738585" x="-8201906.279732959" y="5007380.815908001" />
		<node id="254738587" x="-8201922.0203089565" y="5007339.97939315" />
		<node id="254741150" x="-8203015.834493542" y="5006600.307933556" />
		<node id="254742023" x="-8203265.746750374" y="5006451.864452795" />
		<node id="254742024" x="-8203276.767379962" y="5006445.083573308" />
		<node id="254744246" x="-8202617.81165421" y="5007821.197751073" />
		<node id="254744265" x="-8202428.045318256" y="5007765.321477411" />
		<node id="254744872" x="-8202001.346578095" y="5007420.8270133585" />
		<node id="254744877" x="-8202016.65300808" y="5007382.363865911" />
		<node id="254745461" x="-8201621.591267205" y="5008504.078922899" />
		<node id="254746785" x="-8203465.565236347" y="5007171.254166193" />
		<node id="254746788" x="-8203471.131210885" y="5007059.067146545" />
		<node id="254749128" x="-8201909.7640330205" y="5007804.891871293" />
		<node id="254749924" x="-8201576.696116567" y="5009355.841962145" />
		<node id="254752250" x="-8201953.623912392" y="5007696.088418364" />
		<node id="254752252" x="-8202275.047810109" y="5007793.657637296" />
		<node id="254752966" x="-8200898.025708996" y="5011004.006692201" />
		<node id="254755967" x="-8201978.225519858" y="5008137.64927876" />
		<node id="254770188" x="-8202604.954253025" y="5005800.037166082" />
		<node id="254774749" x="-8202598.386403067" y="5006911.501170812" />
		<node id="254776373" x="-8201870.802211243" y="5007901.459640863" />
		<node id="254777894" x="-8201985.127328288" y="5007617.803759891" />
		<node id="254781290" x="-8202713.379437056" y="5006134.937093085" />
		<node id="254785167" x="-8202421.83369067" y="5006769.834043169" />
		<node id="254786082" x="-8203784.272938489" y="5008106.098021481" />
		<node id="254786182" x="-8202191.7363032" y="5006139.80148153" />
		<node id="254786183" x="-8202200.196584499" y="5006148.645830388" />
		<node id="254786193" x="-8202407.028198393" y="5006242.986051759" />
		<node id="254789347" x="-8202277.118352639" y="5008259.284756404" />
		<node id="254789348" x="-8202237.711252898" y="5008381.658953629" />
		<node id="254790126" x="-8201582.217563311" y="5008619.939202473" />
		<node id="254791036" x="-8204322.613995965" y="5008211.5150056295" />
		<node id="254792227" x="-8202060.323644319" y="5007445.653441489" />
		<node id="254795236" x="-8203845.053380461" y="5007013.661992543" />
		<node id="254798633" x="-8202741.543268228" y="5006407.05177158" />
		<node id="254799749" x="-8203084.741258344" y="5005564.788651761" />
		<node id="254800082" x="-8202782.508840838" y="5004530.7059861515" />
		<node id="254800083" x="-8202769.818418889" y="5004525.252876798" />
		<node id="254800247" x="-8204167.657264781" y="5006999.362361296" />
		<node id="254800248" x="-8204160.198858897" y="5006992.728518885" />
		<node id="254800826" x="-8203746.201672637" y="5006973.269273911" />
		<node id="254800840" x="-8203364.598458197" y="5006840.593640956" />
		<node id="254800844" x="-8203265.858069865" y="5006792.241193453" />
		<node id="254800845" x="-8203243.260213234" y="5006791.504115321" />
		<node id="254800854" x="-8202443.429671883" y="5006672.393022673" />
		<node id="254800855" x="-8202306.061420245" y="5006642.025823913" />
		<node id="254802500" x="-8203070.158405049" y="5006606.057031493" />
		<node id="254802875" x="-8203518.664633455" y="5006117.263168872" />
		<node id="254803748" x="-8202382.64922991" y="5006310.6462425245" />
		<node id="254803751" x="-8202252.850703645" y="5006319.048521278" />
		<node id="254803760" x="-8202070.175419253" y="5006321.554465473" />
		<node id="254803765" x="-8202152.217883968" y="5006211.588345279" />
		<node id="254804121" x="-8202183.164702409" y="5007108.452863078" />
		<node id="254804123" x="-8201921.786538026" y="5007025.750357" />
		<node id="254807816" x="-8203649.019757174" y="5007367.031722275" />
		<node id="254809988" x="-8201424.411053161" y="5009031.447500106" />
		<node id="254810511" x="-8202204.983322605" y="5007047.420999176" />
		<node id="254815366" x="-8201900.079237322" y="5007828.775718968" />
		<node id="254815367" x="-8202225.488372808" y="5007926.64113439" />
		<node id="254816354" x="-8202934.304098485" y="5007635.68680997" />
		<node id="254820328" x="-8203532.022972352" y="5007327.079807663" />
		<node id="254820331" x="-8203413.3563951645" y="5007832.461503152" />
		<node id="254820332" x="-8203391.983052933" y="5007886.126679078" />
		<node id="254823236" x="-8202895.854346365" y="5007402.3694012" />
		<node id="254828675" x="-8202104.239183436" y="5008355.709597652" />
		<node id="254831588" x="-8203480.816006586" y="5006652.492177829" />
		<node id="254831589" x="-8203442.188143279" y="5006627.579325732" />
		<node id="254832330" x="-8203083.728250978" y="5007992.189988202" />
		<node id="254835588" x="-8203092.75626168" y="5006534.119845572" />
		<node id="254835804" x="-8203208.973810068" y="5006900.00261735" />
		<node id="254838640" x="-8201491.6480256" y="5008843.451116171" />
		<node id="254838644" x="-8202023.944434726" y="5007523.523919836" />
		<node id="254838645" x="-8202115.771882683" y="5007314.651994619" />
		<node id="254838653" x="-8202126.536477443" y="5007282.60216805" />
		<node id="254838675" x="-8202691.22685839" y="5005606.796897912" />
		<node id="254838680" x="-8202749.780910547" y="5005455.715455842" />
		<node id="254838681" x="-8202797.091694135" y="5005322.028760292" />
		<node id="254839312" x="-8203118.582383545" y="5006194.489167463" />
		<node id="254840560" x="-8203062.922638148" y="5005697.446889103" />
		<node id="254847916" x="-8201716.402077513" y="5008891.96120779" />
		<node id="254849325" x="-8202377.528533333" y="5007396.221785753" />
		<node id="254855352" x="-8203037.02972459" y="5007846.11365994" />
		<node id="254858083" x="-8202982.661285286" y="5007706.482191578" />
		<node id="254860330" x="-8203641.004753836" y="5008790.6358447075" />
		<node id="254861670" x="-8203432.948625544" y="5007311.452904148" />
		<node id="254861671" x="-8203419.033689195" y="5007364.378084481" />
		<node id="254872215" x="-8203344.226991383" y="5004710.807692974" />
		<node id="254872235" x="-8203879.339783627" y="5003720.58428458" />
		<node id="254872236" x="-8203854.626856669" y="5003712.331618025" />
		<node id="254874068" x="-8201866.672258134" y="5007155.244218025" />
		<node id="254874073" x="-8201890.305386028" y="5007119.022913188" />
		<node id="254874099" x="-8201982.956598216" y="5007212.561723203" />
		<node id="254874120" x="-8203048.86298646" y="5007712.526802385" />
		<node id="254874130" x="-8203580.792041267" y="5008197.16938245" />
		<node id="254874636" x="-8202196.07776334" y="5008225.079232001" />
		<node id="254876335" x="-8203008.164580627" y="5007839.31706545" />
		<node id="254877599" x="-8201567.456598831" y="5007914.87600225" />
		<node id="254879399" x="-8203510.649630119" y="5006234.73124587" />
		<node id="254885138" x="-8203267.750501208" y="5008081.328881863" />
		<node id="254886350" x="-8203057.801941572" y="5008098.726247147" />
		<node id="254890722" x="-8203825.1383235585" y="5009068.074042072" />
		<node id="443469054" x="-8205949.437034418" y="5005710.712812307" />
		<node id="533962423" x="-8203526.868879925" y="5008162.167919921" />
		<node id="533962580" x="-8203566.821445172" y="5008134.169789292" />
	</nodes>

<!-- ====================================================================== -->

	<links capperiod="01:00:00" effectivecellsize="7.5" effectivelanewidth="3.75">
		<link id="121787333_0" from="254185431" to="254185436" length="198.9571542647714" freespeed="22.22222222222222" capacity="1500.0" permlanes="1.0" oneway="1" modes="car" />
		<link id="121787333_0_r" from="254185436" to="254185431" length="198.9571542647714" freespeed="22.22222222222222" capacity="1500.0" permlanes="1.0" oneway="1" modes="car" />
		<link id="121787333_1" from="254185436" to="254146609" length="111.67188729459491" freespeed="22.22222222222222" capacity="1500.0" permlanes="1.0" oneway="1" modes="car" />