<?xml version="1.0" encoding="UTF-8"?>
<!DOCTYPE network SYSTEM "http://www.matsim.org/files/dtd/network_v1.dtd">
<network>

<!-- ====================================================================== -->

	<nodes>
		<node id="1722231350" x="-1.1785048564966233E7" y="4504420.95005556" />
		<node id="1722231355" x="-1.1786930142659368E7" y="4505333.997623438" />
		<node id="1722231359" x="-1.1784491355255067E7" y="4504417.051010676" />
		<node id="1722231451" x="-1.1786200821883485E7" y="4505229.724654875" />
		<node id="1722231463" x="-1.1787029038894985E7" y="4505261.536637042" />
		<node id="1722231471" x="-1.1786922383690856E7" y="4505180.940859162" />
		<node id="1722231473" x="-1.1786268081119822E7" y="4504566.688417007" />
		<node id="1722231478" x="-1.1786783835452616E7" y="4505375.796871639" />
		<node id="1722231479" x="-1.1786131480972668E7" y="4504460.950412698" />
		<node id="1722231497" x="-1.1784522636031978E7" y="4504443.15219848" />
		<node id="1722231506" x="-1.1786340205017906E7" y="4504592.775951745" />
		<node id="1722231520" x="-1.1784558892790131E7" y="4504417.022959999" />
		<node id="1722257438" x="-1.1786534824883662E7" y="4505818.304033603" />
		<node id="1722257506" x="-1.1787194715693137E7" y="4506983.3989926465" />
		<node id="1722257528" x="-1.178651693584149E7" y="4505781.314337082" />
		<node id="1722257562" x="-1.1787107508004047E7" y="4506878.871128505" />
		<node id="1722257566" x="-1.1787028816256005E7" y="4505874.483173875" />
		<node id="1722257643" x="-1.1787575406087749E7" y="4506252.048473325" />
		<node id="1722332816" x="-1.178937718996988E7" y="4506344.029121213" />
		<node id="1722352287" x="-1.1788380646756351E7" y="4506255.401116592" />
		<node id="1722352348" x="-1.1788375270024948E7" y="4506591.007536834" />
		<node id="1722352382" x="-1.178836773369542E7" y="4507096.920436135" />
		<node id="1722366390" x="-1.1787429388311675E7" y="4504211.932438583" />
		<node id="1722366392" x="-1.1788368101049738E7" y="4504635.329628891" />
		<node id="1722366393" x="-1.178554516121466E7" y="4503597.400177933" />
		<node id="1722366410" x="-1.1788203225751925E7" y="4505435.32602153" />
		<node id="1722366415" x="-1.1786515132465739E7" y="4504407.80831655" />
		<node id="1722366443" x="-1.1787430590562178E7" y="4504311.6651453255" />
		<node id="1722366455" x="-1.178817984865886E7" y="4504635.147295694" />
		<node id="1722366457" x="-1.1788236732918652E7" y="4505370.4387036655" />
		<node id="1748869952" x="-1.1784041669040058E7" y="4504372.576755989" />
		<node id="1748904254" x="-1.1784089313782118E7" y="4505134.962549901" />
		<node id="176258296" x="-1.1782945550542012E7" y="4504360.4589217575" />
		<node id="176258311" x="-1.1782969484232534E7" y="4505280.10769771" />
		<node id="176258334" x="-1.178540783749082E7" y="4507406.234731378" />
		<node id="176258370" x="-1.1786552903168965E7" y="4504103.098504221" />
		<node id="176258371" x="-1.1786553504294217E7" y="4504212.11476442" />
		<node id="176258373" x="-1.1786553203731593E7" y="4504338.719786648" />
		<node id="176258375" x="-1.178654158197675E7" y="4504355.465929324" />
		<node id="176258491" x="-1.1784704276045106E7" y="4503188.194792652" />
		<node id="176258493" x="-1.1784705110941289E7" y="4503289.292098506" />
		<node id="176258495" x="-1.1784705567351198E7" y="4503443.064525943" />
		<node id="176258497" x="-1.178470702563653E7" y="4503596.236165877" />
		<node id="176258499" x="-1.1784707237143563E7" y="4503751.906394796" />
		<node id="176258501" x="-1.1784706936580937E7" y="4503906.2185430415" />
		<node id="176258502" x="-1.1784706201872297E7" y="4504058.499357423" />
		<node id="176258503" x="-1.1784706814129496E7" y="4504206.588890436" />
		<node id="176258507" x="-1.1784707470914494E7" y="4504417.4437201675" />
		<node id="176258508" x="-1.178470678073365E7" y="4504568.104996529" />
		<node id="176258510" x="-1.1784707448650597E7" y="4504720.241140888" />
		<node id="176258513" x="-1.1784705645274844E7" y="4504877.008056644" />
		<node id="176258554" x="-1.1786693521949738E7" y="4505904.0246852795" />
		<node id="176258556" x="-1.1786694178734733E7" y="4506074.963099547" />
		<node id="176258558" x="-1.1786693277046856E7" y="4506246.9143020315" />
		<node id="176258562" x="-1.1782428048493214E7" y="4502079.540051046" />
		<node id="176258574" x="-1.1782406563831491E7" y="4502170.96527743" />
		<node id="176258577" x="-1.1779936384330787E7" y="4499196.548597187" />
		<node id="176258589" x="-1.1782489719491113E7" y="4502000.174626438" />
		<node id="176258591" x="-1.178249216851991E7" y="4502080.381383856" />
		<node id="176258595" x="-1.1782509979638437E7" y="4502164.935675072" />
		<node id="176258612" x="-1.1783979975778261E7" y="4503414.062859574" />
		<node id="176258622" x="-1.1783980521243764E7" y="4503751.73810141" />
		<node id="176258624" x="-1.1784154858698295E7" y="4503753.729573332" />
		<node id="176258626" x="-1.1784338302087175E7" y="4503753.547255464" />
		<node id="176258628" x="-1.1784522858670963E7" y="4503751.289319055" />
		<node id="176258630" x="-1.1784889611865329E7" y="4503751.934443694" />
		<node id="176258632" x="-1.17850731443098E7" y="4503749.676507633" />
		<node id="176258633" x="-1.178525731127537E7" y="4503749.494189836" />
		<node id="176258635" x="-1.1785410921040712E7" y="4503751.05090344" />
		<node id="176258637" x="-1.1785563406479202E7" y="4503750.602121116" />
		<node id="176258640" x="-1.1785716281535909E7" y="4503751.710052513" />
		<node id="176258646" x="-1.17858022424467E7" y="4503749.367969828" />
		<node id="176258648" x="-1.1785934757168539E7" y="4503749.353945383" />
		<node id="176258650" x="-1.1786021319204582E7" y="4503749.746629866" />
		<node id="176258666" x="-1.1787320840676202E7" y="4503735.175240433" />
		<node id="176258670" x="-1.1788043248511706E7" y="4503723.871558632" />
		<node id="176258685" x="-1.1787720466516202E7" y="4506253.451252803" />
		<node id="176258687" x="-1.1787719865390953E7" y="4506590.193898514" />
		<node id="176258695" x="-1.1785073533928016E7" y="4505367.857806977" />
		<node id="176258703" x="-1.1787516673924405E7" y="4506722.621381196" />
		<node id="176258704" x="-1.178734917148661E7" y="4506719.87181052" />
		<node id="176258705" x="-1.1787242816845104E7" y="4506720.432947337" />
		<node id="176258707" x="-1.1787136139377078E7" y="4506721.428965256" />
		<node id="176258718" x="-1.1783990261699209E7" y="4506431.95647347" />
		<node id="176258720" x="-1.1783372382865561E7" y="4506452.24103117" />
		<node id="176258730" x="-1.178316237864618E7" y="4505276.011962467" />
		<node id="176258731" x="-1.1783164493716506E7" y="4505305.930503659" />
		<node id="176258733" x="-1.1783175391894653E7" y="4505450.096148054" />
		<node id="176258738" x="-1.1783199158605939E7" y="4505716.116281933" />
		<node id="176258742" x="-1.178321882875996E7" y="4505948.23891677" />
		<node id="176258744" x="-1.1783234279905284E7" y="4506121.49260896" />
		<node id="176258750" x="-1.1783247849751212E7" y="4506297.540707521" />
		<node id="176260043" x="-1.178473314118907E7" y="4505028.601663365" />
		<node id="176260045" x="-1.1784736247002864E7" y="4505184.405370807" />
		<node id="176260539" x="-1.1784672750365313E7" y="4502139.597360723" />
		<node id="176260543" x="-1.1784676869186474E7" y="4502309.394682979" />
		<node id="176260545" x="-1.178468066518111E7" y="4502618.7921312135" />
		<node id="176260617" x="-1.1783485917614223E7" y="4505767.904376951" />
		<node id="176260627" x="-1.1786077246116757E7" y="4503196.48279978" />
		<node id="176260800" x="-1.1783958724887468E7" y="4505409.979803522" />
		<node id="176260802" x="-1.178399148621361E7" y="4505385.545377986" />
		<node id="176260931" x="-1.1781413939064035E7" y="4503545.454512708" />
		<node id="176261541" x="-1.1784889634129228E7" y="4501272.270253639" />
		<node id="176261617" x="-1.1782340996651413E7" y="4502056.263203503" />
		<node id="176262777" x="-1.1785967596418323E7" y="4502117.582383559" />
		<node id="176264080" x="-1.1784249758564198E7" y="4504937.558274882" />
		<node id="176264084" x="-1.1784292750151543E7" y="4504975.7792899255" />
		<node id="176264086" x="-1.1784351037036922E7" y="4505025.459804713" />
		<node id="176264087" x="-1.1784373968852026E7" y="4505046.485028534" />
		<node id="176264089" x="-1.1784307076970007E7" y="4505086.614008392" />
		<node id="176264381" x="-1.1785871082419807E7" y="4504497.542738417" />
		<node id="176264385" x="-1.1786366220382905E7" y="4502512.260444033" />
		<node id="176264391" x="-1.1786776744401053E7" y="4502518.724952855" />
		<node id="176264534" x="-1.1783962064472191E7" y="4502151.095647416" />
		<node id="176264537" x="-1.1787028203998806E7" y="4505720.675082844" />
		<node id="176265381" x="-1.178458972828908E7" y="4504881.636622486" />
		<node id="176265484" x="-1.1786857974233484E7" y="4506586.195849051" />
		<node id="176266515" x="-1.1787094739658453E7" y="4504637.924370885" />
		<node id="176266519" x="-1.1787096387186915E7" y="4504510.165647746" />
		<node id="176267058" x="-1.1785812717610784E7" y="4503313.020446344" />
		<node id="176267060" x="-1.1785717828876829E7" y="4503312.964350893" />
		<node id="176267129" x="-1.1786069041870285E7" y="4503123.700016828" />
		<node id="176267196" x="-1.1784508286949616E7" y="4502142.976733916" />
		<node id="176267200" x="-1.178459759857708E7" y="4502618.764085346" />
		<node id="176267202" x="-1.1784762262367861E7" y="4502618.9463834865" />
		<node id="176267204" x="-1.1784889500545839E7" y="4502624.555558598" />
		<node id="176267224" x="-1.1784590129039248E7" y="4502140.789255708" />
		<node id="176267239" x="-1.1783990617921581E7" y="4505722.554712106" />
		<node id="176267241" x="-1.1783959125637634E7" y="4505722.03570996" />
		<node id="176267328" x="-1.1783121457601365E7" y="4504651.108475284" />
		<node id="176267338" x="-1.1783176382638123E7" y="4505274.833737558" />
		<node id="176267523" x="-1.1786021397128224E7" y="4503597.750784" />
		<node id="176267953" x="-1.1784895400478851E7" y="4505431.636999825" />
		<node id="176267955" x="-1.1784836545864068E7" y="4505422.351331163" />
		<node id="176267959" x="-1.1784357326588152E7" y="4502015.0380701525" />
		<node id="176267964" x="-1.1783981712362316E7" y="4503906.821603243" />
		<node id="176268967" x="-1.1786020061294332E7" y="4505365.052485213" />
		<node id="176269167" x="-1.1786553036752354E7" y="4501962.118697683" />
		<node id="176269206" x="-1.1788041667774938E7" y="4503201.01245788" />
		<node id="176269228" x="-1.1785957544268304E7" y="4501227.304573927" />
		<node id="176269231" x="-1.1785968342258912E7" y="4501944.927671232" />
		<node id="176269235" x="-1.17859757338731E7" y="4502680.507244524" />
		<node id="176269276" x="-1.1785866796619412E7" y="4503597.161765817" />
		<node id="176269284" x="-1.1783978428437337E7" y="4503597.694687029" />
		<node id="176269285" x="-1.1784154201913299E7" y="4503598.11541432" />
		<node id="176269287" x="-1.1784337734357774E7" y="4503597.161765817" />
		<node id="176269289" x="-1.1784522324337406E7" y="4503597.722735514" />
		<node id="176269291" x="-1.1784889600733379E7" y="4503598.199559782" />
		<node id="176269292" x="-1.178507374543505E7" y="4503597.217862785" />
		<node id="176269293" x="-1.178525653203893E7" y="4503596.08189923" />
		<node id="176269295" x="-1.1785410019352838E7" y="4503596.769087044" />
		<node id="176269297" x="-1.178556415231979E7" y="4503597.484323391" />
		<node id="176269298" x="-1.1785717405862765E7" y="4503595.240444825" />
		<node id="176269305" x="-1.178602095185026E7" y="4504875.731694909" />
		<node id="176269329" x="-1.1785993723102812E7" y="4504720.5777587565" />
		<node id="176269331" x="-1.178599434649196E7" y="4504566.155446544" />
		<node id="176269460" x="-1.1786338947107662E7" y="4504873.88026937" />
		<node id="176269461" x="-1.1786338891447915E7" y="4505055.069054655" />
		<node id="176269462" x="-1.1786338880315965E7" y="4505228.434223773" />
		<node id="176269480" x="-1.1783486863829892E7" y="4505941.197170717" />
		<node id="176269524" x="-1.178721955107153E7" y="4504637.742037644" />
		<node id="176269528" x="-1.1787219272772804E7" y="4504983.199092115" />
		<node id="176269543" x="-1.1785928389693666E7" y="4504098.933104176" />
		<node id="176269545" x="-1.178588420698777E7" y="4504205.07418437" />
		<node id="176269547" x="-1.1785872640892679E7" y="4504299.056500149" />
		<node id="176269551" x="-1.178587016959998E7" y="4504417.61202424" />
		<node id="176269553" x="-1.1785872028635476E7" y="4504567.698255857" />
		<node id="176269557" x="-1.1785982735869072E7" y="4503988.305172559" />
		<node id="176269567" x="-1.1786021486183818E7" y="4503495.43040715" />
		<node id="176269570" x="-1.1786022766357962E7" y="4503297.734447792" />
		<node id="176269607" x="-1.1787615592423927E7" y="4499457.335392509" />
		<node id="176269611" x="-1.1786467832814103E7" y="4502176.742481082" />
		<node id="176269636" x="-1.1782921661379289E7" y="4504355.690333426" />
		<node id="176269671" x="-1.1787712807735236E7" y="4504970.30911776" />
		<node id="176269677" x="-1.1787710982095584E7" y="4505235.293147432" />
		<node id="176269685" x="-1.1784889578469481E7" y="4503339.904224456" />
		<node id="176269687" x="-1.1784940462608723E7" y="4503340.381036999" />
		<node id="176269690" x="-1.17873087736434E7" y="4506061.047772366" />
		<node id="176269692" x="-1.1787186711821746E7" y="4506250.407221572" />
		<node id="176269738" x="-1.1786991301587608E7" y="4504931.807602112" />
		<node id="176269742" x="-1.1786987327481786E7" y="4505035.2640899625" />
		<node id="176269744" x="-1.1786991001024982E7" y="4505229.921024839" />
		<node id="176269819" x="-1.178618962314271E7" y="4505438.678403595" />
		<node id="176269821" x="-1.1786297669840477E7" y="4505439.758459973" />
		<node id="176269822" x="-1.1786411460623963E7" y="4505440.922676711" />
		<node id="176269860" x="-1.1787068390334982E7" y="4505900.1671707565" />
		<node id="176269862" x="-1.1787198723194802E7" y="4505988.3713486325" />
		<node id="176269869" x="-1.1787517152598217E7" y="4506253.072502325" />
		<node id="176269907" x="-1.1785946267603887E7" y="4504061.781174968" />
		<node id="176269912" x="-1.1785872440517593E7" y="4504721.152814307" />
		<node id="176269914" x="-1.1785871394114379E7" y="4504875.254812545" />
		<node id="176269916" x="-1.1785871605621412E7" y="4505030.298828474" />
		<node id="176269918" x="-1.1785872318066156E7" y="4505056.064914348" />
		<node id="176269920" x="-1.1785870759593282E7" y="4505184.854214505" />
		<node id="176269922" x="-1.1785871004496163E7" y="4505366.118507393" />
		<node id="176269944" x="-1.17875185552238E7" y="4505214.548073054" />
		<node id="176269946" x="-1.1787490469316272E7" y="4505263.388131039" />
		<node id="176269948" x="-1.1787481207534641E7" y="4505279.9814592665" />
		<node id="176269949" x="-1.1787348214138988E7" y="4505476.312121878" />
		<node id="176269951" x="-1.1787278116255637E7" y="4505582.004259682" />
		<node id="176269953" x="-1.1787208719685076E7" y="4505686.869867852" />
		<node id="176269955" x="-1.1787137775773594E7" y="4505791.7224978795" />
		<node id="176270316" x="-1.1785344006894797E7" y="4505184.335238982" />
		<node id="176270318" x="-1.178535777711581E7" y="4505248.449950151" />
		<node id="176270321" x="-1.1785373862782229E7" y="4505327.92412238" />
		<node id="176270335" x="-1.1787198110937603E7" y="4504312.829236803" />
		<node id="176270337" x="-1.1787196975478796E7" y="4504210.684207934" />
		<node id="176270342" x="-1.1783990395282598E7" y="4505230.93092757" />
		<node id="176270344" x="-1.1783849620654542E7" y="4505256.879850552" />
		<node id="176270346" x="-1.1783695498819537E7" y="4505260.162043221" />
		<node id="176270350" x="-1.1783439118900292E7" y="4505268.549873608" />
		<node id="176270359" x="-1.1782779851479968E7" y="4505284.708388515" />
		<node id="176270399" x="-1.1784575969200019E7" y="4504720.774119184" />
		<node id="176270459" x="-1.1787351386744477E7" y="4506251.094583386" />
		<node id="176270461" x="-1.1787350574112196E7" y="4506588.917328168" />
		<node id="176270493" x="-1.1786750450737327E7" y="4504337.611793228" />
		<node id="176270495" x="-1.1786850326584468E7" y="4504335.67631133" />
		<node id="176270497" x="-1.1786949245083986E7" y="4504336.601976543" />
		<node id="176270619" x="-1.1784339348490389E7" y="4504567.810460176" />
		<node id="176270621" x="-1.178488970092092E7" y="4504567.445796134" />
		<node id="176270623" x="-1.1785076094276307E7" y="4504566.786595781" />
		<node id="176270625" x="-1.1785256765809864E7" y="4504567.558000455" />
		<node id="176270626" x="-1.1785411366318677E7" y="4504567.740332477" />
		<node id="176270629" x="-1.1785565888903847E7" y="4504567.558000455" />
		<node id="176270632" x="-1.178571846339793E7" y="4504567.642153692" />
		<node id="176270634" x="-1.17860265178248E7" y="4504565.748705947" />
		<node id="176270639" x="-1.1786199630764931E7" y="4504566.141421006" />
		<node id="176270641" x="-1.1786451379793363E7" y="4504642.552831179" />
		<node id="176270643" x="-1.1786596718520543E7" y="4504722.204745271" />
		<node id="176270645" x="-1.1786708550080992E7" y="4504781.63200331" />
		<node id="176270647" x="-1.178681173211701E7" y="4504837.693381313" />
		<node id="176270649" x="-1.1786900431487273E7" y="4504884.9607755765" />
		<node id="176270651" x="-1.1787858480420887E7" y="4505396.949037925" />
		<node id="176270657" x="-1.1788143513977064E7" y="4505548.18546502" />
		<node id="176270705" x="-1.1787753071995053E7" y="4506055.198290544" />
		<node id="176270717" x="-1.1787668836536372E7" y="4505997.811820673" />
		<node id="176270736" x="-1.1785289638455493E7" y="4505291.7777466215" />
		<node id="176270738" x="-1.1785257355803166E7" y="4505291.230712786" />
		<node id="176270749" x="-1.178527419844212E7" y="4505359.161311955" />
		<node id="176270765" x="-1.178415348946856E7" y="4503444.943746936" />
		<node id="176270767" x="-1.1784337890205061E7" y="4503443.302934557" />
		<node id="176270768" x="-1.1784522324337406E7" y="4503444.0462085055" />
		<node id="176270769" x="-1.1784889589601431E7" y="4503442.938309619" />
		<node id="176270771" x="-1.1785071775080064E7" y="4503444.158400807" />
		<node id="176270773" x="-1.1785254684135385E7" y="4503441.830410845" />
		<node id="176270775" x="-1.1785411277263084E7" y="4503442.096867502" />
		<node id="176270803" x="-1.178999939913172E7" y="4503182.178629146" />
		<node id="176270809" x="-1.1787441210441597E7" y="4503201.587430099" />
		<node id="176270823" x="-1.1783302485357294E7" y="4505300.600424433" />
		<node id="176270835" x="-1.178631585944527E7" y="4504234.120113823" />
		<node id="176270836" x="-1.1786331622285169E7" y="4504211.1049598195" />
		<node id="176270837" x="-1.1786440604066653E7" y="4504211.792187939" />
		<node id="176270838" x="-1.178674910377149E7" y="4504213.306894975" />
		<node id="176270840" x="-1.1786948643958738E7" y="4504211.525711726" />
		<node id="176270846" x="-1.1787079811714737E7" y="4504210.72628312" />
		<node id="176270850" x="-1.1787313883208029E7" y="4504211.034834505" />
		<node id="176270880" x="-1.17875167407161E7" y="4506837.416600596" />
		<node id="176270883" x="-1.1787517308445504E7" y="4506589.2680342905" />
		<node id="176270889" x="-1.1786192383866083E7" y="4505229.402047085" />
		<node id="176270891" x="-1.1786296656833109E7" y="4505579.759956367" />
		<node id="176270921" x="-1.1783486908357691E7" y="4506113.763393661" />
		<node id="176270923" x="-1.1783708990741821E7" y="4506106.7075088145" />
		<node id="176270925" x="-1.1783833156501854E7" y="4506103.817823744" />
		<node id="176270927" x="-1.1783989783025399E7" y="4506101.685629446" />
		<node id="176270936" x="-1.1787446598304952E7" y="4506003.549050775" />
		<node id="176270938" x="-1.1787666420903422E7" y="4506149.435663529" />
		<node id="176270947" x="-1.1787819796897838E7" y="4506254.264864988" />
		<node id="176271014" x="-1.1787136462203601E7" y="4506250.028471201" />
		<node id="176271016" x="-1.1787135126369711E7" y="4506588.847186945" />
		<node id="176271034" x="-1.1786906776698248E7" y="4501216.536394856" />
		<node id="176271066" x="-1.178507386788649E7" y="4503288.815288288" />
		<node id="176271068" x="-1.178525414980183E7" y="4503286.865976134" />
		<node id="176271070" x="-1.1785410498026649E7" y="4503288.100072996" />
		<node id="176271073" x="-1.1784153812295083E7" y="4503289.558551287" />
		<node id="176271075" x="-1.1784335174009483E7" y="4503291.409697107" />
		<node id="176271077" x="-1.1784522446788844E7" y="4503289.796956414" />
		<node id="176271079" x="-1.1784889567337532E7" y="4503288.843335946" />
		<node id="176271084" x="-1.1784403501912931E7" y="4504815.686765117" />
		<node id="176271086" x="-1.1784335741738886E7" y="4504858.255372927" />
		<node id="176271092" x="-1.1783989526990568E7" y="4504945.356753245" />
		<node id="176271093" x="-1.1783840236421468E7" y="4504949.185864346" />
		<node id="176271094" x="-1.1783689331719747E7" y="4504953.477836695" />
		<node id="176271095" x="-1.1783537380614815E7" y="4504957.320976824" />
		<node id="176271096" x="-1.1783428031479008E7" y="4504960.659179977" />
		<node id="176271105" x="-1.1786175496699331E7" y="4504103.308878005" />
		<node id="176271107" x="-1.1786332579632789E7" y="4504103.968049221" />
		<node id="176271111" x="-1.178644039255962E7" y="4504102.032610449" />
		<node id="176271113" x="-1.1786699599993935E7" y="4504102.747881259" />
		<node id="176271115" x="-1.178674850264624E7" y="4504103.883899699" />
		<node id="176271119" x="-1.178694798717374E7" y="4504106.927307741" />
		<node id="176271130" x="-1.1787321931607213E7" y="4504107.348055468" />
		<node id="176271137" x="-1.1788046309797704E7" y="4504091.654176761" />
		<node id="176271194" x="-1.1787026500810597E7" y="4505230.664425453" />
		<node id="176271196" x="-1.178702790343618E7" y="4505414.468337937" />
		<node id="176271198" x="-1.1787026767977376E7" y="4505568.117640627" />
		<node id="176271200" x="-1.1787029127950579E7" y="4505903.996630624" />
		<node id="176271202" x="-1.1787030107562099E7" y="4506077.530142767" />
		<node id="176271204" x="-1.1787029127950579E7" y="4506248.176802934" />
		<node id="176271205" x="-1.178702694608856E7" y="4506590.053616051" />
		<node id="176271368" x="-1.1784136424190622E7" y="4504837.216500675" />
		<node id="176271431" x="-1.1783990940748105E7" y="4504797.060423701" />
		<node id="176271433" x="-1.1783839412657237E7" y="4504802.348169367" />
		<node id="176271435" x="-1.1783685914211381E7" y="4504803.540367037" />
		<node id="176271437" x="-1.1783543803749433E7" y="4504808.856167698" />
		<node id="176271439" x="-1.1784805331878848E7" y="4505186.1306138765" />
		<node id="176271447" x="-1.1784539044524921E7" y="4505519.963476833" />
		<node id="176271520" x="-1.1784153456072712E7" y="4503188.194792652" />
		<node id="176271522" x="-1.1783978005423274E7" y="4503188.461242866" />
		<node id="176271526" x="-1.1785410052748686E7" y="4503227.657545141" />
		<node id="176271528" x="-1.1785545094422966E7" y="4503228.2886138195" />
		<node id="176271532" x="-1.1785717528314207E7" y="4503228.891635032" />
		<node id="176271804" x="-1.178649880189644E7" y="4503603.220240148" />
		<node id="176271957" x="-1.1786929786436995E7" y="4505229.317888535" />
		<node id="176272082" x="-1.178630764406685E7" y="4503493.999948434" />
		<node id="176272198" x="-1.178382991710467E7" y="4505931.111490885" />
		<node id="176272213" x="-1.178387163964982E7" y="4500927.398094459" />
		<node id="176272256" x="-1.178685052695955E7" y="4504517.655247797" />
		<node id="176272260" x="-1.1786811631929467E7" y="4505034.4084938895" />
		<node id="176272339" x="-1.1786079327791233E7" y="4505229.696602024" />
		<node id="176272355" x="-1.1786297313618103E7" y="4505676.658189496" />
		<node id="176272357" x="-1.178640566087849E7" y="4505676.784432713" />
		<node id="176272473" x="-1.1787923947413424E7" y="4506253.549447374" />
		<node id="176272475" x="-1.178792218856547E7" y="4506590.853226116" />
		<node id="176272517" x="-1.1787527427387217E7" y="4505899.872596977" />
		<node id="176272519" x="-1.1787735594835E7" y="4506043.190731381" />
		<node id="176272521" x="-1.178803361937575E7" y="4506142.323644077" />
		<node id="176272642" x="-1.1783371280802602E7" y="4505571.582280223" />
		<node id="176272645" x="-1.1783313672966119E7" y="4505588.190123184" />
		<node id="176273056" x="-1.1787014322458304E7" y="4504875.661565149" />
		<node id="176273326" x="-1.1787875311927892E7" y="4507037.774656684" />
		<node id="176273328" x="-1.1787875901921198E7" y="4506904.09464061" />
		<node id="176273353" x="-1.1784889511677789E7" y="4502677.464250422" />
		<node id="176273356" x="-1.1785076695401555E7" y="4502677.492296446" />
		<node id="176273358" x="-1.178525692165715E7" y="4502678.54402242" />
		<node id="176273361" x="-1.1785413347805614E7" y="4502677.52034247" />
		<node id="176273384" x="-1.1785089263372067E7" y="4506258.332926858" />
		<node id="176273442" x="-1.1787081214340322E7" y="4504313.432320387" />
		<node id="176273466" x="-1.1785717739821238E7" y="4504417.696176276" />
		<node id="176273468" x="-1.178571965451648E7" y="4504721.335149" />
		<node id="176273469" x="-1.1785720522808509E7" y="4504873.6979320245" />
		<node id="176273470" x="-1.1785720823371133E7" y="4505029.1627096515" />
		<node id="176273471" x="-1.178572062299605E7" y="4505183.605868017" />
		<node id="176273472" x="-1.1785719220370464E7" y="4505365.683682542" />
		<node id="176273477" x="-1.1785717795480983E7" y="4504058.849978906" />
		<node id="176273479" x="-1.1785716893793106E7" y="4504208.412148029" />
		<node id="176273549" x="-1.1784887986600764E7" y="4502006.288266773" />
		<node id="176273551" x="-1.1784889456018042E7" y="4502135.02609415" />
		<node id="176273623" x="-1.1784889756580666E7" y="4505184.587713556" />
		<node id="176273625" x="-1.1785073044122258E7" y="4505184.096790776" />
		<node id="176273628" x="-1.1785257567310197E7" y="4505183.507683471" />
		<node id="176273629" x="-1.1785416230980426E7" y="4505184.25108079" />
		<node id="176273633" x="-1.1785565020611819E7" y="4505181.712309027" />
		<node id="176273641" x="-1.178601891470358E7" y="4505203.186690696" />
		<node id="176273644" x="-1.1786062674395412E7" y="4505225.376463755" />
		<node id="176273646" x="-1.1786298794167334E7" y="4505229.079439304" />
		<node id="176273647" x="-1.178641152741566E7" y="4505228.364091654" />
		<node id="176273651" x="-1.1786591954046335E7" y="4505229.6685491735" />
		<node id="176273654" x="-1.178683155811832E7" y="4505227.943298939" />
		<node id="176273667" x="-1.1783991052067596E7" y="4504836.6835164605" />
		<node id="176273669" x="-1.1783990684713276E7" y="4505093.977784044" />
		<node id="176273796" x="-1.1787663971874623E7" y="4505689.380707877" />
		<node id="176273798" x="-1.1788031882791696E7" y="4505936.035096933" />
		<node id="176273849" x="-1.178452216849012E7" y="4504719.666085387" />
		<node id="176273852" x="-1.178488971205287E7" y="4504720.858273656" />
		<node id="176273853" x="-1.1785075248248175E7" y="4504720.100883446" />
		<node id="176273855" x="-1.1785258413338328E7" y="4504720.507630034" />
		<node id="176273857" x="-1.1785412089895368E7" y="4504720.28321812" />
		<node id="176273859" x="-1.178556657908469E7" y="4504721.769947129" />
		<node id="176273873" x="-1.1783543670166045E7" y="4505107.891827589" />
		<node id="176273911" x="-1.1783990061324125E7" y="4506695.111678515" />
		<node id="176273913" x="-1.1783677977131687E7" y="4506701.256113748" />
		<node id="176273929" x="-1.1786016654917916E7" y="4505522.909108233" />
		<node id="176273932" x="-1.1786026851783272E7" y="4504418.1169364685" />
		<node id="176273936" x="-1.1786060781964067E7" y="4504876.53117422" />
		<node id="176273938" x="-1.1786064132680738E7" y="4505056.064914348" />
		<node id="176273942" x="-1.1786746688138539E7" y="4504463.082273323" />
		<node id="176273944" x="-1.1786951393550158E7" y="4504573.070039133" />
		<node id="176273946" x="-1.178700952458825E7" y="4504638.19085794" />
		<node id="176273948" x="-1.1787358221761212E7" y="4504637.012704708" />
		<node id="176273955" x="-1.1788049014861329E7" y="4504635.245475106" />
		<node id="176273957" x="-1.1788293483595062E7" y="4504635.063141909" />
		<node id="176273987" x="-1.1785257834476976E7" y="4504417.317492115" />
		<node id="176273989" x="-1.1785258558053665E7" y="4504876.068317768" />
		<node id="176273991" x="-1.1785259604456881E7" y="4505030.060383774" />
		<node id="176273996" x="-1.1785254372440811E7" y="4502129.837849224" />
		<node id="176274001" x="-1.1785256420719443E7" y="4503904.872176207" />
		<node id="176274003" x="-1.1785256932789098E7" y="4504059.607321354" />
		<node id="176274005" x="-1.1785255997705376E7" y="4504127.922639804" />
		<node id="176274023" x="-1.1783709302436396E7" y="4505934.155429395" />
		<node id="176274025" x="-1.1783990183775567E7" y="4505924.630850547" />
		<node id="176274039" x="-1.178805396857867E7" y="4505234.704037246" />
		<node id="176274041" x="-1.1788274436830185E7" y="4505231.688354684" />
		<node id="176274046" x="-1.1792108257829208E7" y="4505249.291537241" />
		<node id="176274069" x="-1.178343307425194E7" y="4505109.645110597" />
		<node id="176274171" x="-1.1787244197206791E7" y="4506587.9634075705" />
		<node id="176274173" x="-1.1787620701988552E7" y="4506590.250011498" />
		<node id="176274174" x="-1.178781938501572E7" y="4506589.843192357" />
		<node id="176274176" x="-1.1788025548712669E7" y="4506589.6888816515" />
		<node id="176274179" x="-1.1785564341562925E7" y="4505366.553332264" />
		<node id="176274181" x="-1.1785603726398766E7" y="4505367.03023698" />
		<node id="176274199" x="-1.1787785132008404E7" y="4505507.507673209" />
		<node id="176274214" x="-1.1788296444693517E7" y="4505632.795777586" />
		<node id="176274217" x="-1.1788576557928197E7" y="4505780.963657989" />