<?xml version="1.0" encoding="utf-8"?>
<!DOCTYPE population SYSTEM "http://www.matsim.org/files/dtd/population_v5.dtd">

<population>

<!-- ====================================================================== -->

	<person id="1" employed="no">
		<plan selected="yes">
			<act type="h" link="23503334_0" end_time="01:08:53" />
			<leg mode="car">
			</leg>
			<act type="w" link="23477287_2" end_time="08:26:06" />
			<leg mode="car">
			</leg>
			<act type="h" link="23503334_0" end_time="11:35:59" />
			<leg mode="car">
			</leg>
		</plan>

	</person>

<!-- ====================================================================== -->

	<person id="10" employed="no">
		<plan selected="yes">
			<act type="h" link="23476149_1_r" end_time="01:21:12" />
			<leg mode="car">
			</leg>
			<act type="w" link="23475865_1" end_time="05:54:58" />
			<leg mode="car">
			</leg>
			<act type="h" link="23476149_1_r" end_time="10:22:52" />
			<leg mode="car">
			</leg>
		</plan>

	</person>

<!-- ====================================================================== -->

	<person id="100" employed="no">
		<plan selected="yes">
			<act type="h" link="23512510_0" end_time="05:03:26" />
			<leg mode="car">
			</leg>
			<act type="w" link="23476042_0" end_time="06:00:01" />
			<leg mode="car">
			</leg>
			<act type="h" link="23512510_0" end_time="06:56:19" />
			<leg mode="car">
			</leg>
		</plan>

	</person>

<!-- ====================================================================== -->

	<person id="101" employed="no">
		<plan selected="yes">
			<act type="h" link="23524410_0_r" end_time="05:05:21" />
			<leg mode="car">
			</leg>
			<act type="w" link="23529547_13" end_time="10:30:26" />
			<leg mode="car">
			</leg>
			<act type="h" link="23524410_0_r" end_time="13:50:57" />
			<leg mode="car">
			</leg>
		</plan>

	</person>

<!-- ====================================================================== -->

	<person id="102" employed="no">
		<plan selected="yes">
			<act type="h" link="23474621_2" end_time="05:49:30" />
			<leg mode="car">
			</leg>
			<act type="w" link="23473721_0_r" end_time="11:04:56" />
			<leg mode="car">
			</leg>
			<act type="h" link="23474621_2" end_time="14:26:13" />
			<leg mode="car">
			</leg>
		</plan>

	</person>

<!-- ====================================================================== -->

	<person id="103" employed="no">
		<plan selected="yes">
			<act type="h" link="23524231_1" end_time="05:59:22" />
			<leg mode="car">
			</leg>
			<act type="w" link="121787333_2_r" end_time="08:24:07" />
			<leg mode="car">
			</leg>
			<act type="h" link="23524231_1" end_time="12:13:14" />
			<leg mode="car">
			</leg>
		</plan>

	</person>

<!-- ====================================================================== -->

	<person id="104" employed="no">
		<plan selected="yes">
			<act type="h" link="295023436_4" end_time="05:27:41" />
			<leg mode="car">
			</leg>
			<act type="w" link="23517730_1" end_time="08:13:17" />
			<leg mode="car">
			</leg>
			<act type="h" link="295023436_4" end_time="12:52:05" />
			<leg mode="car">
			</leg>
		</plan>

	</person>

<!-- ====================================================================== -->

	<person id="105" employed="no">
		<plan selected="yes">
			<act type="h" link="23472347_0_r" end_time="05:22:26" />
			<leg mode="car">
			</leg>
			<act type="w" link="23537828_2" end_time="12:14:09" />
			<leg mode="car">
			</leg>
			<act type="h" link="23472347_0_r" end_time="18:34:42" />
			<leg mode="car">
			</leg>
		</plan>

	</person>

<!-- ====================================================================== -->

	<person id="106" employed="no">
		<plan selected="yes">
			<act type="h" link="23513332_0" end_time="05:14:55" />
			<leg mode="car">
			</leg>
			<act type="w" link="23474719_16" end_time="06:48:48" />
			<leg mode="car">
			</leg>
			<act type="h" link="23513332_0" end_time="09:29:57" />
			<leg mode="car">
			</leg>
		</plan>

	</person>

<!-- ====================================================================== -->

	<person id="107" employed="no">
		<plan selected="yes">
			<act type="h" link="23531826_1" end_time="05:47:22" />
			<leg mode="car">
			</leg>
			<act type="w" link="23474719_4_r" end_time="06:05:11" />
			<leg mode="car">
			</leg>
			<act type="h" link="23531826_1" end_time="08:23:03" />
			<leg mode="car">
			</leg>
		</plan>

	</person>

<!-- ====================================================================== -->

	<person id="108" employed="no">
		<plan selected="yes">
			<act type="h" link="23512510_0_r" end_time="05:27:48" />
			<leg mode="car">
			</leg>
			<act type="w" link="23533488_0" end_time="11:29:56" />
			<leg mode="car">
			</leg>
			<act type="h" link="23512510_0_r" end_time="11:55:40" />
			<leg mode="car">
			</leg>
		</plan>

	</person>

<!-- ====================================================================== -->

	<person id="109" employed="no">
		<plan selected="yes">
			<act type="h" link="23475924_1_r" end_time="05:54:52" />
			<leg mode="car">
			</leg>
			<act type="w" link="220081930_1" end_time="10:43:00" />
			<leg mode="car">
			</leg>
			<act type="h" link="23475924_1_r" end_time="12:03:29" />
			<leg mode="car">
			</leg>
		</plan>

	</person>

<!-- ====================================================================== -->

	<person id="11" employed="no">
		<plan selected="yes">
			<act type="h" link="23504032_0_r" end_time="01:48:38" />
			<leg mode="car">
			</leg>
			<act type="w" link="42699472_0" end_time="09:21:58" />
			<leg mode="car">
			</leg>
			<act type="h" link="23504032_0_r" end_time="16:24:43" />
			<leg mode="car">
			</leg>
		</plan>

	</person>

<!-- ====================================================================== -->

	<person id="110" employed="no">
		<plan selected="yes">
			<act type="h" link="23537561_0" end_time="05:42:38" />
			<leg mode="car">
			</leg>
			<act type="w" link="121787333_0" end_time="05:56:13" />
			<leg mode="car">
			</leg>
			<act type="h" link="23537561_0" end_time="09:48:51" />
			<leg mode="car">
			</leg>
		</plan>

	</person>

<!-- ====================================================================== -->

	<person id="111" employed="no">
		<plan selected="yes">
			<act type="h" link="132500854_1_r" end_time="05:41:31" />
			<leg mode="car">
			</leg>
			<act type="w" link="23537129_5_r" end_time="06:11:34" />
			<leg mode="car">
			</leg>
			<act type="h" link="132500854_1_r" end_time="10:58:22" />
			<leg mode="car">
			</leg>
		</plan>

	</person>

<!-- ====================================================================== -->

	<person id="112" employed="no">
		<plan selected="yes">
			<act type="h" link="23537360_0_r" end_time="05:18:20" />
			<leg mode="car">
			</leg>
			<act type="w" link="23532766_14" end_time="09:03:06" />
			<leg mode="car">
			</leg>
			<act type="h" link="23537360_0_r" end_time="13:42:12" />
			<leg mode="car">
			</leg>
		</plan>

	</person>

<!-- ====================================================================== -->

	<person id="113" employed="no">
		<plan selected="yes">
			<act type="h" link="23527907_0" end_time="05:27:59" />
			<leg mode="car">
			</leg>
			<act type="w" link="23472078_1_r" end_time="10:05:30" />
			<leg mode="car">
			</leg>
			<act type="h" link="23527907_0" end_time="10:57:59" />
			<leg mode="car">
			</leg>
		</plan>

	</person>

<!-- ====================================================================== -->

	<person id="114" employed="no">
		<plan selected="yes">
			<act type="h" link="23517729_2" end_time="05:03:29" />
			<leg mode="car">
			</leg>
			<act type="w" link="23525318_0_r" end_time="09:41:15" />
			<leg mode="car">
			</leg>
			<act type="h" link="23517729_2" end_time="15:12:00" />
			<leg mode="car">
			</leg>
		</plan>

	</person>

<!-- ====================================================================== -->

	<person id="115" employed="no">
		<plan selected="yes">
			<act type="h" link="23466855_0_r" end_time="06:46:11" />
			<leg mode="car">
			</leg>
			<act type="w" link="23515675_0_r" end_time="09:32:33" />
			<leg mode="car">
			</leg>
			<act type="h" link="23466855_0_r" end_time="11:47:28" />
			<leg mode="car">
			</leg>
		</plan>

	</person>

<!-- ====================================================================== -->

	<person id="116" employed="no">
		<plan selected="yes">
			<act type="h" link="220081847_9_r" end_time="06:45:46" />
			<leg mode="car">
			</leg>
			<act type="w" link="23473719_1" end_time="12:59:21" />
			<leg mode="car">
			</leg>
			<act type="h" link="220081847_9_r" end_time="17:49:04" />
			<leg mode="car">
			</leg>
		</plan>

	</person>

<!-- ====================================================================== -->

	<person id="117" employed="no">
		<plan selected="yes">
			<act type="h" link="23472988_0" end_time="06:04:20" />
			<leg mode="car">
			</leg>
			<act type="w" link="23523959_0_r" end_time="11:56:08" />
			<leg mode="car">
			</leg>
			<act type="h" link="23472988_0" end_time="13:29:02" />
			<leg mode="car">
			</leg>
		</plan>

	</person>

<!-- ====================================================================== -->

	<person id="118" employed="no">
		<plan selected="yes">
			<act type="h" link="132500854_18" end_time="06:36:00" />
			<leg mode="car">
			</leg>
			<act type="w" link="121787333_1" end_time="13:33:59" />
			<leg mode="car">
			</leg>
			<act type="h" link="132500854_18" end_time="20:51:13" />
			<leg mode="car">
			</leg>
		</plan>

	</person>

<!-- ====================================================================== -->

	<person id="119" employed="no">
		<plan selected="yes">
			<act type="h" link="23505625_0_r" end_time="06:15:30" />
			<leg mode="car">
			</leg>
			<act type="w" link="23473273_0_r" end_time="06:33:33" />
			<leg mode="car">
			</leg>
			<act type="h" link="23505625_0_r" end_time="12:31:19" />
			<leg mode="car">
			</leg>
		</plan>

	</person>

<!-- ====================================================================== -->

	<person id="12" employed="no">
		<plan selected="yes">
			<act type="h" link="23470070_0_r" end_time="01:45:36" />
			<leg mode="car">
			</leg>
			<act type="w" link="23508097_0_r" end_time="07:15:01" />
			<leg mode="car">
			</leg>
			<act type="h" link="23470070_0_r" end_time="14:31:04" />
			<leg mode="car">
			</leg>
		</plan>

	</person>

<!-- ====================================================================== -->

	<person id="120" employed="no">
		<plan selected="yes">
			<act type="h" link="23535913_3_r" end_time="06:29:50" />
			<leg mode="car">
			</leg>
			<act type="w" link="220081930_1_r" end_time="07:36:47" />
			<leg mode="car">
			</leg>
			<act type="h" link="23535913_3_r" end_time="15:04:56" />
			<leg mode="car">
			</leg>
		</plan>

	</person>

<!-- ====================================================================== -->

	<person id="121" employed="no">
		<plan selected="yes">
			<act type="h" link="23530177_1" end_time="06:40:26" />
			<leg mode="car">
			</leg>
			<act type="w" link="23535913_2" end_time="12:15:53" />
			<leg mode="car">
			</leg>
			<act type="h" link="23530177_1" end_time="15:10:47" />
			<leg mode="car">
			</leg>
		</plan>

	</person>

<!-- ====================================================================== -->

	<person id="122" employed="no">
		<plan selected="yes">
			<act type="h" link="23529547_13" end_time="06:08:51" />
			<leg mode="car">
			</leg>
			<act type="w" link="23518725_5_r" end_time="06:29:49" />
			<leg mode="car">
			</leg>
			<act type="h" link="23529547_13" end_time="12:03:36" />
			<leg mode="car">
			</leg>
		</plan>

	</person>

<!-- ====================================================================== -->

	<person id="123" employed="no">
		<plan selected="yes">
			<act type="h" link="23530317_0_r" end_time="06:17:10" />
			<leg mode="car">
			</leg>
			<act type="w" link="23532766_23" end_time="13:05:32" />
			<leg mode="car">
			</leg>
			<act type="h" link="23530317_0_r" end_time="18:04:07" />
			<leg mode="car">
			</leg>
		</plan>

	</person>

<!-- ====================================================================== -->

	<person id="124" employed="no">
		<plan selected="yes">
			<act type="h" link="295023436_1_r" end_time="06:42:55" />
			<leg mode="car">
			</leg>
			<act type="w" link="23529547_18_r" end_time="13:21:02" />
			<leg mode="car">
			</leg>
			<act type="h" link="295023436_1_r" end_time="14:25:58" />
			<leg mode="car">
			</leg>
		</plan>

	</person>

<!-- ====================================================================== -->

	<person id="125" employed="no">
		<plan selected="yes">
			<act type="h" link="23513821_1_r" end_time="06:57:25" />
			<leg mode="car">
			</leg>
			<act type="w" link="23527547_0" end_time="13:26:43" />
			<leg mode="car">
			</leg>
			<act type="h" link="23513821_1_r" end_time="13:44:08" />
			<leg mode="car">
			</leg>
		</plan>

	</person>

<!-- ====================================================================== -->

	<person id="126" employed="no">
		<plan selected="yes">
			<act type="h" link="23539006_3" end_time="06:02:12" />
			<leg mode="car">
			</leg>
			<act type="w" link="220081930_1" end_time="09:37:42" />
			<leg mode="car">
			</leg>
			<act type="h" link="23539006_3" end_time="16:05:41" />
			<leg mode="car">
			</leg>
		</plan>

	</person>

<!-- ====================================================================== -->

	<person id="127" employed="no">
		<plan selected="yes">
			<act type="h" link="220081847_5_r" end_time="06:49:07" />
			<leg mode="car">
			</leg>
			<act type="w" link="23529547_10" end_time="07:07:51" />
			<leg mode="car">
			</leg>
			<act type="h" link="220081847_5_r" end_time="09:13:44" />
			<leg mode="car">
			</leg>
		</plan>

	</person>

<!-- ====================================================================== -->

	<person id="128" employed="no">
		<plan selected="yes">
			<act type="h" link="23504032_6_r" end_time="06:16:22" />
			<leg mode="car">
			</leg>
			<act type="w" link="23539006_0" end_time="09:13:48" />
			<leg mode="car">
			</leg>
			<act type="h" link="23504032_6_r" end_time="12:45:04" />
			<leg mode="car">
			</leg>
		</plan>

	</person>

<!-- ====================================================================== -->

	<person id="129" employed="no">
		<plan selected="yes">
			<act type="h" link="23539006_0" end_time="06:50:18" />
			<leg mode="car">
			</leg>
			<act type="w" link="23537360_0_r" end_time="08:18:23" />
			<leg mode="car">
			</leg>
			<act type="h" link="23539006_0" end_time="14:11:21" />
			<leg mode="car">
			</leg>
		</plan>

	</person>

<!-- ====================================================================== -->

	<person id="13" employed="no">
		<plan selected="yes">
			<act type="h" link="220081930_1" end_time="01:54:28" />
			<leg mode="car">
			</leg>
			<act type="w" link="23466306_0" end_time="09:30:37" />
			<leg mode="car">
			</leg>
			<act type="h" link="220081930_1" end_time="15:09:41" />
			<leg mode="car">
			</leg>
		</plan>

	</person>

<!-- ====================================================================== -->

	<person id="130" employed="no">
		<plan selected="yes">
			<act type="h" link="23475002_0" end_time="06:43:18" />
			<leg mode="car">
			</leg>
			<act type="w" link="23533795_2_r" end_time="12:51:31" />
			<leg mode="car">
			</leg>
			<act type="h" link="23475002_0" end_time="18:19:02" />
			<leg mode="car">
			</leg>
		</plan>

	</person>

<!-- ====================================================================== -->

	<person id="131" employed="no">
		<plan selected="yes">
			<act type="h" link="23474719_8_r" end_time="06:04:54" />
			<leg mode="car">
			</leg>
			<act type="w" link="23505377_1_r" end_time="12:38:58" />
			<leg mode="car">
			</leg>
			<act type="h" link="23474719_8_r" end_time="18:27:24" />
			<leg mode="car">
			</leg>
		</plan>

	</person>

<!-- ====================================================================== -->

	<person id="132" employed="no">
		<plan selected="yes">
			<act type="h" link="23477042_1" end_time="06:36:08" />
			<leg mode="car">
			</leg>
			<act type="w" link="23524676_1_r" end_time="12:37:51" />
			<leg mode="car">
			</leg>
			<act type="h" link="23477042_1" end_time="15:05:06" />
			<leg mode="car">
			</leg>
		</plan>

	</person>

<!-- ====================================================================== -->

	<person id="133" employed="no">
		<plan selected="yes">
			<act type="h" link="23534213_0" end_time="06:13:29" />
			<leg mode="car">
			</leg>
			<act type="w" link="23533656_1" end_time="08:23:53" />
			<leg mode="car">
			</leg>
			<act type="h" link="23534213_0" end_time="14:48:36" />
			<leg mode="car">
			</leg>
		</plan>

	</person>

<!-- ====================================================================== -->

	<person id="134" employed="no">
		<plan selected="yes">
			<act type="h" link="23533052_1" end_time="06:50:50" />
			<leg mode="car">
			</leg>
			<act type="w" link="23524410_2" end_time="10:49:46" />
			<leg mode="car">
			</leg>
			<act type="h" link="23533052_1" end_time="12:24:28" />
			<leg mode="car">
			</leg>
		</plan>

	</person>

<!-- ====================================================================== -->

	<person id="135" employed="no">
		<plan selected="yes">
			<act type="h" link="23476439_1" end_time="06:35:38" />
			<leg mode="car">
			</leg>
			<act type="w" link="23532766_18_r" end_time="08:26:26" />
			<leg mode="car">
			</leg>
			<act type="h" link="23476439_1" end_time="14:31:45" />
			<leg mode="car">
			</leg>
		</plan>

	</person>

<!-- ====================================================================== -->

	<person id="136" employed="no">
		<plan selected="yes">
			<act type="h" link="23472078_3" end_time="06:32:39" />
			<leg mode="car">
			</leg>
			<act type="w" link="23529843_0" end_time="13:37:48" />
			<leg mode="car">
			</leg>
			<act type="h" link="23472078_3" end_time="15:33:31" />
			<leg mode="car">
			</leg>
		</plan>

	</person>

<!-- ====================================================================== -->

	<person id="137" employed="no">
		<plan selected="yes">
			<act type="h" link="23465486_0" end_time="06:34:03" />
			<leg mode="car">
			</leg>
			<act type="w" link="23476180_0" end_time="12:46:21" />
			<leg mode="car">
			</leg>
			<act type="h" link="23465486_0" end_time="18:30:35" />
			<leg mode="car">
			</leg>
		</plan>

	</person>

<!-- ====================================================================== -->

	<person id="138" employed="no">
		<plan selected="yes">
			<act type="h" link="23529547_14_r" end_time="07:26:24" />
			<leg mode="car">
			</leg>
			<act type="w" link="23525788_0" end_time="11:00:42" />
			<leg mode="car">
			</leg>
			<act type="h" link="23529547_14_r" end_time="16:26:32" />
			<leg mode="car">
			</leg>
		</plan>

	</person>

<!-- ====================================================================== -->

	<person id="139" employed="no">
		<plan selected="yes">
			<act type="h" link="121787333_1" end_time="07:13:22" />
			<leg mode="car">
			</leg>
			<act type="w" link="295023338_1" end_time="08:13:51" />
			<leg mode="car">
			</leg>
			<act type="h" link="121787333_1" end_time="13:48:57" />
			<leg mode="car">
			</leg>
		</plan>

	</person>

<!-- ====================================================================== -->

	<person id="14" employed="no">
		<plan selected="yes">
			<act type="h" link="23513592_0_r" end_time="01:58:26" />
			<leg mode="car">
			</leg>
			<act type="w" link="132500854_4_r" end_time="02:58:30" />
			<leg mode="car">
			</leg>
			<act type="h" link="23513592_0_r" end_time="08:53:50" />
			<leg mode="car">
			</leg>
		</plan>

	</person>

<!-- ====================================================================== -->

	<person id="140" employed="no">
		<plan selected="yes">
			<act type="h" link="23529843_0" end_time="07:10:17" />
			<leg mode="car">
			</leg>
			<act type="w" link="23473273_1" end_time="13:24:52" />
			<leg mode="car">
			</leg>
			<act type="h" link="23529843_0" end_time="19:57:19" />
			<leg mode="car">
			</leg>
		</plan>

	</person>

<!-- ====================================================================== -->

	<person id="141" employed="no">
		<plan selected="yes">
			<act type="h" link="23472078_0" end_time="07:06:56" />
			<leg mode="car">
			</leg>
			<act type="w" link="23474719_13" end_time="10:08:08" />
			<leg mode="car">
			</leg>
			<act type="h" link="23472078_0" end_time="16:03:14" />
			<leg mode="car">
			</leg>
		</plan>

	</person>

<!-- ====================================================================== -->

	<person id="142" employed="no">
		<plan selected="yes">
			<act type="h" link="23524163_0" end_time="07:34:41" />
			<leg mode="car">
			</leg>
			<act type="w" link="23536092_2_r" end_time="11:53:35" />
			<leg mode="car">
			</leg>
			<act type="h" link="23524163_0" end_time="16:39:01" />
			<leg mode="car">
			</leg>
		</plan>

	</person>

<!-- ====================================================================== -->

	<person id="143" employed="no">
		<plan selected="yes">
			<act type="h" link="220081847_8" end_time="07:25:36" />
			<leg mode="car">
			</leg>
			<act type="w" link="23536092_2" end_time="09:26:53" />
			<leg mode="car">
			</leg>
			<act type="h" link="220081847_8" end_time="15:32:17" />
			<leg mode="car">
			</leg>
		</plan>

	</person>

<!-- ====================================================================== -->

	<person id="144" employed="no">
		<plan selected="yes">
			<act type="h" link="23474719_20" end_time="07:27:22" />
			<leg mode="car">
			</leg>
			<act type="w" link="23477054_0_r" end_time="14:57:40" />
			<leg mode="car">
			</leg>
			<act type="h" link="23474719_20" end_time="16:48:10" />
			<leg mode="car">
			</leg>
		</plan>

	</person>

<!-- ====================================================================== -->

	<person id="145" employed="no">
		<plan selected="yes">
			<act type="h" link="23512833_1" end_time="07:12:50" />
			<leg mode="car">
			</leg>
			<act type="w" link="23525318_0" end_time="08:58:09" />
			<leg mode="car">
			</leg>
			<act type="h" link="23512833_1" end_time="10:00:58" />
			<leg mode="car">
			</leg>
		</plan>

	</person>

<!-- ====================================================================== -->

	<person id="146" employed="no">
		<plan selected="yes">
			<act type="h" link="23474719_22_r" end_time="07:57:45" />
			<leg mode="car">
			</leg>
			<act type="w" link="23504598_0_r" end_time="15:45:34" />
			<leg mode="car">
			</leg>
			<act type="h" link="23474719_22_r" end_time="19:56:37" />
			<leg mode="car">
			</leg>
		</plan>

	</person>

<!-- ====================================================================== -->

	<person id="147" employed="no">
		<plan selected="yes">
			<act type="h" link="23531146_2_r" end_time="07:56:29" />
			<leg mode="car">
			</leg>
			<act type="w" link="23530680_0" end_time="13:32:37" />
			<leg mode="car">
			</leg>
			<act type="h" link="23531146_2_r" end_time="15:20:03" />
			<leg mode="car">
			</leg>
		</plan>

	</person>

<!-- ====================================================================== -->

	<person id="148" employed="no">
		<plan selected="yes">
			<act type="h" link="23531146_0" end_time="07:15:24" />
			<leg mode="car">
			</leg>
			<act type="w" link="23532871_0" end_time="08:34:35" />
			<leg mode="car">
			</leg>
			<act type="h" link="23531146_0" end_time="14:30:31" />
			<leg mode="car">
			</leg>
		</plan>

	</person>

<!-- ====================================================================== -->

	<person id="149" employed="no">
		<plan selected="yes">
			<act type="h" link="23532766_19" end_time="07:02:40" />
			<leg mode="car">
			</leg>
			<act type="w" link="23523661_1_r" end_time="13:10:09" />
			<leg mode="car">
			</leg>
			<act type="h" link="23532766_19" end_time="16:02:22" />
			<leg mode="car">
			</leg>
		</plan>

	</person>

<!-- ====================================================================== -->

	<person id="15" employed="no">
		<plan selected="yes">
			<act type="h" link="23523661_1_r" end_time="01:51:45" />
			<leg mode="car">
			</leg>
			<act type="w" link="23473221_0" end_time="08:31:49" />
			<leg mode="car">
			</leg>
			<act type="h" link="23523661_1_r" end_time="09:58:02" />
			<leg mode="car">
			</leg>
		</plan>

	</person>

<!-- ====================================================================== -->

	<person id="150" employed="no">
		<plan selected="yes">
			<act type="h" link="23505844_0_r" end_time="07:08:34" />
			<leg mode="car">
			</leg>
			<act type="w" link="23537129_4_r" end_time="12:34:15" />
			<leg mode="car">
			</leg>
			<act type="h" link="23505844_0_r" end_time="13:12:41" />
			<leg mode="car">
			</leg>
		</plan>

	</person>

<!-- ====================================================================== -->

	<person id="151" employed="no">
		<plan selected="yes">
			<act type="h" link="23537851_2" end_time="07:55:45" />
			<leg mode="car">
			</leg>
			<act type="w" link="23475634_0_r" end_time="13:49:08" />
			<leg mode="car">
			</leg>
			<act type="h" link="23537851_2" end_time="18:22:42" />
			<leg mode="car">
			</leg>
		</plan>

	</person>

<!-- ====================================================================== -->

	<person id="152" employed="no">
		<plan selected="yes">
			<act type="h" link="23475551_0_r" end_time="07:12:14" />
			<leg mode="car">
			</leg>
			<act type="w" link="23511368_3_r" end_time="11:17:51" />
			<leg mode="car">
			</leg>
			<act type="h" link="23475551_0_r" end_time="14:22:51" />
			<leg mode="car">
			</leg>
		</plan>

	</person>

<!-- ====================================================================== -->

	<person id="153" employed="no">
		<plan selected="yes">
			<act type="h" link="23537130_1_r" end_time="07:35:55" />
			<leg mode="car">
			</leg>
			<act type="w" link="23505844_0_r" end_time="09:50:12" />
			<leg mode="car">
			</leg>
			<act type="h" link="23537130_1_r" end_time="12:07:46" />
			<leg mode="car">
			</leg>
		</plan>

	</person>

<!-- ====================================================================== -->

	<person id="154" employed="no">
		<plan selected="yes">
			<act type="h" link="23518725_0" end_time="07:05:41" />
			<leg mode="car">
			</leg>
			<act type="w" link="23509735_3_r" end_time="10:16:02" />
			<leg mode="car">
			</leg>
			<act type="h" link="23518725_0" end_time="17:23:04" />
			<leg mode="car">
			</leg>
		</plan>

	</person>

<!-- ====================================================================== -->

	<person id="155" employed="no">
		<plan selected="yes">
			<act type="h" link="220081847_6_r" end_time="07:03:15" />
			<leg mode="car">
			</leg>
			<act type="w" link="132500854_18" end_time="07:21:08" />
			<leg mode="car">
			</leg>
			<act type="h" link="220081847_6_r" end_time="08:25:57" />
			<leg mode="car">
			</leg>
		</plan>

	</person>

<!-- ====================================================================== -->

	<person id="156" employed="no">
		<plan selected="yes">
			<act type="h" link="23525574_0_r" end_time="07:19:50" />
			<leg mode="car">
			</leg>
			<act type="w" link="23511400_0_r" end_time="12:31:32" />
			<leg mode="car">
			</leg>
			<act type="h" link="23525574_0_r" end_time="17:56:49" />
			<leg mode="car">
			</leg>
		</plan>

	</person>

<!-- ====================================================================== -->

	<person id="157" employed="no">
		<plan selected="yes">
			<act type="h" link="132500854_18" end_time="07:31:13" />
			<leg mode="car">
			</leg>
			<act type="w" link="23512510_1_r" end_time="08:10:59" />
			<leg mode="car">
			</leg>
			<act type="h" link="132500854_18" end_time="09:16:01" />
			<leg mode="car">
			</leg>
		</plan>

	</person>

<!-- ====================================================================== -->

	<person id="158" employed="no">
		<plan selected="yes">
			<act type="h" link="23474719_5" end_time="07:01:42" />
			<leg mode="car">
			</leg>
			<act type="w" link="23527907_0_r" end_time="07:57:06" />
			<leg mode="car">
			</leg>
			<act type="h" link="23474719_5" end_time="10:48:34" />
			<leg mode="car">
			</leg>
		</plan>

	</person>

<!-- ====================================================================== -->

	<person id="159" employed="no">
		<plan selected="yes">
			<act type="h" link="23539006_4" end_time="07:28:31" />
			<leg mode="car">
			</leg>
			<act type="w" link="23523661_0" end_time="10:23:28" />
			<leg mode="car">
			</leg>
			<act type="h" link="23539006_4" end_time="16:05:52" />
			<leg mode="car">
			</leg>
		</plan>

	</person>

<!-- ====================================================================== -->

	<person id="16" employed="no">
		<plan selected="yes">
			<act type="h" link="23531146_4" end_time="01:27:14" />
			<leg mode="car">
			</leg>
			<act type="w" link="23511019_0" end_time="02:25:51" />
			<leg mode="car">
			</leg>
			<act type="h" link="23531146_4" end_time="08:56:33" />
			<leg mode="car">
			</leg>
		</plan>

	</person>

<!-- ====================================================================== -->

	<person id="160" employed="no">
		<plan selected="yes">
			<act type="h" link="132500854_10" end_time="07:30:18" />
			<leg mode="car">
			</leg>
			<act type="w" link="23529547_4_r" end_time="11:35:09" />
			<leg mode="car">
			</leg>
			<act type="h" link="132500854_10" end_time="18:34:58" />
			<leg mode="car">
			</leg>
		</plan>

	</person>

<!-- ====================================================================== -->

	<person id="161" employed="no">
		<plan selected="yes">
			<act type="h" link="23476149_1" end_time="07:55:27" />
			<leg mode="car">
			</leg>
			<act type="w" link="23515675_1_r" end_time="09:25:31" />
			<leg mode="car">