<?xml version="1.0" encoding="UTF-8"?>
<!DOCTYPE network SYSTEM "http://www.matsim.org/files/dtd/network_v2.dtd">
<network>

<!-- ====================================================================== -->

	<nodes>
		<node id="10733679560" x="-1.061292785343673E7" y="5082171.063639656" >
		</node>
		<node id="10733679561" x="-1.0612975921192855E7" y="5082703.041194444" >
		</node>
		<node id="10733679563" x="-1.0613032137535708E7" y="5083911.918870722" >
		</node>
		<node id="10733679566" x="-1.0612932250556616E7" y="5083947.7748961905" >
		</node>
		<node id="10733720668" x="-1.0612901448453514E7" y="5083991.031141083" >
		</node>
		<node id="10733720674" x="-1.0612797531708859E7" y="5084421.969647432" >
		</node>
		<node id="10733720675" x="-1.0612797409257421E7" y="5085297.413744108" >
		</node>
		<node id="10733720676" x="-1.0612766974508636E7" y="5085298.082517584" >
		</node>
		<node id="1332534958" x="-1.061281868241211E7" y="5086947.731411453" >
		</node>
		<node id="1332535071" x="-1.0612796017763784E7" y="5084575.18036403" >
		</node>
		<node id="160719778" x="-1.0613449273931608E7" y="5083843.506003985" >
		</node>
		<node id="160719810" x="-1.061324637189574E7" y="5083710.708566555" >
		</node>
		<node id="160720505" x="-1.0613374355914304E7" y="5083191.052369095" >
		</node>
		<node id="160720511" x="-1.0613377361540554E7" y="5083049.15587125" >
		</node>
		<node id="160720517" x="-1.0613378808693934E7" y="5082901.169709262" >
		</node>
		<node id="160720528" x="-1.0613383929390512E7" y="5082762.843335039" >
		</node>
		<node id="160720561" x="-1.0612817168467036E7" y="5082612.514089169" >
		</node>
		<node id="160720563" x="-1.0612731819813443E7" y="5082670.681333828" >
		</node>
		<node id="160720565" x="-1.061292677363767E7" y="5082623.434349696" >
		</node>
		<node id="160720572" x="-1.061306110286721E7" y="5082451.57911424" >
		</node>
		<node id="160720577" x="-1.0613063329257026E7" y="5082349.9561246475" >
		</node>
		<node id="160720582" x="-1.0613067225439204E7" y="5082197.375082335" >
		</node>
		<node id="160720586" x="-1.0612906480094502E7" y="5082347.281849929" >
		</node>
		<node id="160720600" x="-1.061290659141399E7" y="5082194.4037131015" >
		</node>
		<node id="160720607" x="-1.061322541043562E7" y="5082352.77897099" >
		</node>
		<node id="160720617" x="-1.0613229640576273E7" y="5082200.197883955" >
		</node>
		<node id="160720623" x="-1.0613387380294725E7" y="5082356.493243752" >
		</node>
		<node id="160720634" x="-1.061339194439385E7" y="5082203.614960707" >
		</node>
		<node id="160720639" x="-1.061338793689218E7" y="5082203.614960707" >
		</node>
		<node id="160720649" x="-1.061339238967181E7" y="5082044.499325029" >
		</node>
		<node id="160723114" x="-1.0613054980295217E7" y="5082748.579933617" >
		</node>
		<node id="160723118" x="-1.0613054089739291E7" y="5082895.52369591" >
		</node>
		<node id="160723122" x="-1.0613051974668965E7" y="5083042.321118899" >
		</node>
		<node id="160723130" x="-1.0613049303001188E7" y="5083184.960434607" >
		</node>
		<node id="160723137" x="-1.0613048301125769E7" y="5083323.887215847" >
		</node>
		<node id="160723140" x="-1.0613045952284513E7" y="5083462.474249024" >
		</node>
		<node id="160723144" x="-1.0613043625707157E7" y="5083601.93995867" >
		</node>
		<node id="160723291" x="-1.0613218842585664E7" y="5082751.997204956" >
		</node>
		<node id="160723293" x="-1.061321683883483E7" y="5082898.643860772" >
		</node>
		<node id="160723295" x="-1.061321539168145E7" y="5083044.995586631" >
		</node>
		<node id="160723299" x="-1.0613212386055198E7" y="5083187.783525719" >
		</node>
		<node id="160723361" x="-1.0612820185225237E7" y="5085857.460926957" >
		</node>
		<node id="160725303" x="-1.0613031603202153E7" y="5085734.548861511" >
		</node>
		<node id="160725305" x="-1.0612898799049634E7" y="5085732.914007852" >
		</node>
		<node id="160725361" x="-1.0612943549484933E7" y="5085679.855726285" >
		</node>
		<node id="160727005" x="-1.061255350825309E7" y="5084529.187172164" >
		</node>
		<node id="160727007" x="-1.0612534951293977E7" y="5084528.548172983" >
		</node>
		<node id="160727014" x="-1.0612553374669703E7" y="5084507.297759302" >
		</node>
		<node id="160727016" x="-1.0612533470744748E7" y="5084507.357200951" >
		</node>
		<node id="160727023" x="-1.061255230600259E7" y="5084457.158857256" >
		</node>
		<node id="160727025" x="-1.0612533081126532E7" y="5084456.950812563" >
		</node>
		<node id="160727304" x="-1.061272512951205E7" y="5083597.898307298" >
		</node>
		<node id="160727322" x="-1.061272678817246E7" y="5083458.358362216" >
		</node>
		<node id="160727328" x="-1.061288216791771E7" y="5083599.63681154" >
		</node>
		<node id="160727344" x="-1.061288397129346E7" y="5083460.379158407" >
		</node>
		<node id="160727454" x="-1.0612885329391247E7" y="5083321.658428138" >
		</node>
		<node id="160727468" x="-1.0612886887864122E7" y="5083182.285928002" >
		</node>
		<node id="160727475" x="-1.0612890895365788E7" y="5083039.646651908" >
		</node>
		<node id="160727486" x="-1.0612891006685277E7" y="5082892.552111261" >
		</node>
		<node id="160727489" x="-1.0612894457589492E7" y="5082745.756971261" >
		</node>
		<node id="160727497" x="-1.061289665058346E7" y="5082620.433134005" >
		</node>
		<node id="160733383" x="-1.061272168973978E7" y="5083875.007958697" >
		</node>
		<node id="160733391" x="-1.061256395002133E7" y="5084012.310134654" >
		</node>
		<node id="160733410" x="-1.0612567412057491E7" y="5083874.101533089" >
		</node>
		<node id="160733420" x="-1.061257107446874E7" y="5083734.290119425" >
		</node>
		<node id="160737638" x="-1.0612559775540425E7" y="5085132.85229538" >
		</node>
		<node id="160737643" x="-1.0612631621139782E7" y="5085132.12408787" >
		</node>
		<node id="160739533" x="-1.0613542337025912E7" y="5082602.6784365475" >
		</node>
		<node id="160739555" x="-1.0613546455847068E7" y="5082464.504922245" >
		</node>
		<node id="160739572" x="-1.0613550574668229E7" y="5082358.127524221" >
		</node>
		<node id="160739584" x="-1.0613553023697028E7" y="5082206.437764156" >
		</node>
		<node id="160739601" x="-1.061370786910872E7" y="5082469.407819467" >
		</node>
		<node id="160739619" x="-1.0613712544527333E7" y="5082362.2875121245" >
		</node>
		<node id="160739626" x="-1.0613715772792567E7" y="5082208.369156467" >
		</node>
		<node id="160739638" x="-1.0613716106751038E7" y="5082052.967597952" >
		</node>
		<node id="160742044" x="-1.0613637693301722E7" y="5082076.470808476" >
		</node>
		<node id="160742047" x="-1.061361620864E7" y="5082076.322241861" >
		</node>
		<node id="160742633" x="-1.0611736757149141E7" y="5082834.606393951" >
		</node>
		<node id="160742634" x="-1.061173339530052E7" y="5083004.432905804" >
		</node>
		<node id="160742636" x="-1.061173339530052E7" y="5083135.036433776" >
		</node>
		<node id="160745683" x="-1.0612445817777697E7" y="5084507.78815294" >
		</node>
		<node id="160745686" x="-1.0612466812633662E7" y="5084508.248825767" >
		</node>
		<node id="160745694" x="-1.0612445506083123E7" y="5084539.693513588" >
		</node>
		<node id="160745696" x="-1.0612434118099216E7" y="5084539.440885729" >
		</node>
		<node id="160745705" x="-1.0612445617402615E7" y="5084585.315242311" >
		</node>
		<node id="160745709" x="-1.0612462081555303E7" y="5084583.977794421" >
		</node>
		<node id="160746113" x="-1.061279872282741E7" y="5086148.770275839" >
		</node>
		<node id="160746133" x="-1.0613070787662912E7" y="5085537.4766849" >
		</node>
		<node id="160746137" x="-1.0612944662679842E7" y="5085538.36840512" >
		</node>
		<node id="160746142" x="-1.0612825884783164E7" y="5085537.179444845" >
		</node>
		<node id="160746144" x="-1.061280442238534E7" y="5085538.53188717" >
		</node>
		<node id="160746146" x="-1.061277395424071E7" y="5085538.3089571" >
		</node>
		<node id="160746148" x="-1.0612723025573673E7" y="5085541.34080645" >
		</node>
		<node id="160752699" x="-1.0613149601862391E7" y="5082199.455041345" >
		</node>
		<node id="160753117" x="-1.0612753081836186E7" y="5086472.044796622" >
		</node>
		<node id="160753120" x="-1.0612810967971398E7" y="5086470.855721021" >
		</node>
		<node id="160753122" x="-1.0612839799719512E7" y="5086470.261183273" >
		</node>
		<node id="160753126" x="-1.0612749630931972E7" y="5086280.902779551" >
		</node>
		<node id="160753128" x="-1.061275386107262E7" y="5086507.8657680135" >
		</node>
		<node id="160753882" x="-1.0613069229190039E7" y="5085403.273733486" >
		</node>
		<node id="160753890" x="-1.0612944551360352E7" y="5085401.490318158" >
		</node>
		<node id="160753923" x="-1.0612946777750166E7" y="5085316.184004084" >
		</node>
		<node id="160753932" x="-1.061306945182902E7" y="5085314.846454658" >
		</node>
		<node id="160756485" x="-1.0612944106082385E7" y="5085602.126614916" >
		</node>
		<node id="160756487" x="-1.0612944328721367E7" y="5085572.105214108" >
		</node>
		<node id="160756493" x="-1.0612945664555257E7" y="5085221.069841345" >
		</node>
		<node id="160756503" x="-1.0612851154307574E7" y="5085206.80279798" >
		</node>
		<node id="160756506" x="-1.0612795683805311E7" y="5085206.059723386" >
		</node>
		<node id="160756508" x="-1.0612767442050498E7" y="5085206.059723386" >
		</node>
		<node id="160757810" x="-1.0612840022358496E7" y="5081169.633141762" >
		</node>
		<node id="160757828" x="-1.0613052085988456E7" y="5081117.491308897" >
		</node>
		<node id="160757861" x="-1.061112035886472E7" y="5080712.398991256" >
		</node>
		<node id="160757894" x="-1.0611091081838641E7" y="5080955.422627668" >
		</node>
		<node id="160759802" x="-1.0613008114789594E7" y="5085209.032022113" >
		</node>
		<node id="160760366" x="-1.061246721338383E7" y="5084614.947191038" >
		</node>
		<node id="160760373" x="-1.0612445817777697E7" y="5084477.889047398" >
		</node>
		<node id="160760375" x="-1.06124651205774E7" y="5084476.358429677" >
		</node>
		<node id="160760555" x="-1.0613073125372216E7" y="5085572.105214108" >
		</node>
		<node id="160764642" x="-1.0612550046216927E7" y="5084130.088431364" >
		</node>
		<node id="160764657" x="-1.0612549834709896E7" y="5084102.003392553" >
		</node>
		<node id="160764663" x="-1.0612756154254131E7" y="5084149.287351597" >
		</node>
		<node id="160766527" x="-1.061278859275375E7" y="5085895.211743347" >
		</node>
		<node id="160768546" x="-1.0612801416759089E7" y="5086221.019331255" >
		</node>
		<node id="160768668" x="-1.0612833009230576E7" y="5086224.720233492" >
		</node>
		<node id="160769100" x="-1.061346942275944E7" y="5082357.08752753" >
		</node>
		<node id="160774006" x="-1.0613073737629417E7" y="5084929.907451948" >
		</node>
		<node id="160775540" x="-1.0612786399759779E7" y="5085830.782781819" >
		</node>
		<node id="160775543" x="-1.061278529769682E7" y="5085781.112582666" >
		</node>
		<node id="160775590" x="-1.0612554710503591E7" y="5084629.896945018" >
		</node>
		<node id="160775593" x="-1.0612536932780914E7" y="5084629.68889659" >
		</node>
		<node id="160775598" x="-1.0612554376545122E7" y="5084606.714433848" >
		</node>
		<node id="160775599" x="-1.0612539682372335E7" y="5084605.822799914" >
		</node>
		<node id="160775605" x="-1.0612554465600714E7" y="5084577.929560161" >
		</node>
		<node id="160775608" x="-1.0612535797322107E7" y="5084576.829881616" >
		</node>
		<node id="160775668" x="-1.0611441693706846E7" y="5082848.112172289" >
		</node>
		<node id="160777290" x="-1.061355480480888E7" y="5082050.293405695" >
		</node>
		<node id="160777575" x="-1.0618963818866525E7" y="5080022.875081348" >
		</node>
		<node id="160777599" x="-1.0618957028377585E7" y="5080754.734574925" >
		</node>
		<node id="160778525" x="-1.0613307452900337E7" y="5082455.441997573" >
		</node>
		<node id="160778615" x="-1.0612832074146854E7" y="5086175.791151" >
		</node>
		<node id="160779253" x="-1.0613631169979563E7" y="5082420.824675282" >
		</node>
		<node id="160779263" x="-1.0613650650890453E7" y="5082373.430345718" >
		</node>
		<node id="160779899" x="-1.0609171043261439E7" y="5085352.1492917165" >
		</node>
		<node id="160779914" x="-1.0609618436294938E7" y="5085349.474183054" >
		</node>
		<node id="160779924" x="-1.0609615319349196E7" y="5084843.297554371" >
		</node>
		<node id="160779936" x="-1.0609165811245373E7" y="5084820.857574162" >
		</node>
		<node id="160781316" x="-1.060970437494183E7" y="5075338.182022783" >
		</node>
		<node id="160783985" x="-1.0613456287059527E7" y="5083192.9839588795" >
		</node>
		<node id="160783987" x="-1.0613458402129853E7" y="5083051.236014233" >
		</node>
		<node id="160783997" x="-1.061345817949087E7" y="5082902.952661535" >
		</node>
		<node id="160784422" x="-1.0613632839771925E7" y="5082308.356379754" >
		</node>
		<node id="160784427" x="-1.0613634064286323E7" y="5082207.477744584" >
		</node>
		<node id="160784430" x="-1.0613637504058588E7" y="5082052.269336569" >
		</node>
		<node id="160784442" x="-1.0613622709698264E7" y="5082467.624947459" >
		</node>
		<node id="160784452" x="-1.061363183789651E7" y="5082389.327477288" >
		</node>
		<node id="160784460" x="-1.061309917413306E7" y="5083744.3943941565" >
		</node>
		<node id="160784465" x="-1.0612961026644988E7" y="5083739.639440024" >
		</node>
		<node id="160784470" x="-1.0612802051280186E7" y="5083737.276823059" >
		</node>
		<node id="160784525" x="-1.060330650984747E7" y="5085012.713662555" >
		</node>
		<node id="160785546" x="-1.061278981726815E7" y="5084764.8321565045" >
		</node>
		<node id="160785554" x="-1.0612797164354539E7" y="5084500.610575894" >
		</node>
		<node id="160785561" x="-1.0612799390744355E7" y="5084333.283898595" >
		</node>
		<node id="160785564" x="-1.0612800949217228E7" y="5084270.425693946" >
		</node>
		<node id="160785566" x="-1.0612802663537385E7" y="5084243.216986056" >
		</node>
		<node id="160785816" x="-1.0612494931937035E7" y="5084210.985688809" >
		</node>
		<node id="160785829" x="-1.0612356161059812E7" y="5084335.735822695" >
		</node>
		<node id="160786114" x="-1.0613297879424129E7" y="5082899.832495273" >
		</node>
		<node id="160786123" x="-1.0613300996369872E7" y="5082757.49455703" >
		</node>
		<node id="160786145" x="-1.0613309679290151E7" y="5082354.413250832" >
		</node>
		<node id="160786151" x="-1.0613309790609643E7" y="5082202.129275015" >
		</node>
		<node id="160786163" x="-1.0613316135820618E7" y="5082049.104876046" >
		</node>
		<node id="160786175" x="-1.06133078981783E7" y="5082173.158449793" >
		</node>
		<node id="160786183" x="-1.0613315579223163E7" y="5082202.277843575" >
		</node>
		<node id="160787857" x="-1.0607559359673735E7" y="5070017.705661073" >
		</node>
		<node id="160788547" x="-1.0616149328180797E7" y="5073282.934203894" >
		</node>
		<node id="160788725" x="-1.0616053370779732E7" y="5080752.506381675" >
		</node>
		<node id="160788775" x="-1.061602609750449E7" y="5082905.627090561" >
		</node>
		<node id="160790334" x="-1.0611803303940738E7" y="5078568.53063429" >
		</node>
		<node id="160794411" x="-1.0613561372658836E7" y="5083239.4908145955" >
		</node>
		<node id="160794434" x="-1.0613293204005515E7" y="5083189.269363474" >
		</node>
		<node id="160794439" x="-1.0613131122826919E7" y="5083186.44627193" >
		</node>
		<node id="160794442" x="-1.0612969041648325E7" y="5083183.623181214" >
		</node>
		<node id="160794444" x="-1.0612809231387341E7" y="5083181.097258633" >
		</node>
		<node id="160796312" x="-1.0613067336758696E7" y="5084506.5547386985" >
		</node>
		<node id="160796323" x="-1.0613072680094253E7" y="5084671.952540456" >
		</node>
		<node id="160799020" x="-1.0613472317066202E7" y="5082205.546352452" >
		</node>
		<node id="160799023" x="-1.0613472651024673E7" y="5082162.015847915" >
		</node>
		<node id="160800609" x="-1.061282458234512E7" y="5084151.427171703" >
		</node>
		<node id="160800614" x="-1.061279874509131E7" y="5084148.975294538" >
		</node>
		<node id="160800633" x="-1.061270432389922E7" y="5085346.353223887" >
		</node>
		<node id="160800640" x="-1.061272703307534E7" y="5085686.246484203" >
		</node>
		<node id="160803870" x="-1.0613126747970931E7" y="5083463.529223904" >
		</node>
		<node id="160803873" x="-1.0612965145466147E7" y="5083461.4341330575" >
		</node>
		<node id="160803877" x="-1.061280563576779E7" y="5083459.36876026" >
		</node>
		<node id="160807510" x="-1.0613466305813698E7" y="5082613.970123189" >
		</node>
		<node id="160807531" x="-1.0613140584983638E7" y="5082583.363740088" >
		</node>
		<node id="160808635" x="-1.0612551927516323E7" y="5084367.313688875" >
		</node>
		<node id="160808637" x="-1.0612550591682432E7" y="5084224.805457263" >
		</node>
		<node id="160809336" x="-1.0607498245273288E7" y="5081812.293268777" >
		</node>
		<node id="160809409" x="-1.0605382840989746E7" y="5081814.076019476" >
		</node>
		<node id="160811146" x="-1.0611757195407651E7" y="5084767.507102725" >
		</node>
		<node id="160811174" x="-1.0612850152432159E7" y="5080460.914605023" >
		</node>
		<node id="160811196" x="-1.0611786160739155E7" y="5080451.259399151" >
		</node>
		<node id="160818336" x="-1.0613129007756595E7" y="5083324.927316956" >
		</node>
		<node id="160818338" x="-1.0612967037897492E7" y="5083322.698529006" >
		</node>
		<node id="160818341" x="-1.0612807428011592E7" y="5083320.618327383" >
		</node>
		<node id="160818524" x="-1.0614696319395268E7" y="5082909.341576554" >
		</node>
		<node id="160818527" x="-1.0614568825182464E7" y="5082908.7472587" >
		</node>
		<node id="160818542" x="-1.0613872733274585E7" y="5082911.570268839" >
		</node>
		<node id="160820082" x="-1.0612340754442288E7" y="5086673.297958708" >
		</node>
		<node id="160820100" x="-1.0612332850758443E7" y="5087229.664452825" >
		</node>
		<node id="160820403" x="-1.061363239449396E7" y="5082360.058946957" >
		</node>
		<node id="160820474" x="-1.0612372925775126E7" y="5083732.061236723" >
		</node>
		<node id="160820479" x="-1.0612360012714194E7" y="5083873.819203817" >
		</node>
		<node id="160820486" x="-1.0612301236023055E7" y="5084006.069084179" >
		</node>
		<node id="160820497" x="-1.0612425568762323E7" y="5083454.465358987" >
		</node>
		<node id="160820510" x="-1.0612421995406669E7" y="5083591.850692421" >
		</node>
		<node id="160820525" x="-1.0613306896302884E7" y="5082202.129275015" >
		</node>
		<node id="160821402" x="-1.0612959245533135E7" y="5083879.762979682" >
		</node>
		<node id="160821407" x="-1.0612800247904435E7" y="5083876.345308109" >
		</node>
		<node id="160822363" x="-1.0612561167034058E7" y="5085347.839394792" >
		</node>
		<node id="160824594" x="-1.060751310642531E7" y="5080716.082922375" >
		</node>
		<node id="160824828" x="-1.0596905895161683E7" y="5080697.633571798" >
		</node>
		<node id="160825079" x="-1.0624026195161788E7" y="5080796.9217977775" >
		</node>
		<node id="160826075" x="-1.0612641762345392E7" y="5084012.904520623" >
		</node>
		<node id="160826078" x="-1.0612643955339361E7" y="5083996.72237568" >
		</node>
		<node id="160827151" x="-1.0612984626377037E7" y="5082196.335102999" >
		</node>
		<node id="160827152" x="-1.061294165705359E7" y="5082195.443692229" >
		</node>
		<node id="160827156" x="-1.0612823324434875E7" y="5082192.175186777" >
		</node>
		<node id="160827164" x="-1.0613930174131835E7" y="5082208.517725123" >
		</node>
		<node id="160827168" x="-1.061379781525728E7" y="5082208.369156467" >
		</node>
		<node id="160827369" x="-1.0612973271788977E7" y="5082894.186482704" >
		</node>
		<node id="160827372" x="-1.0612971156718649E7" y="5083040.983885309" >
		</node>
		<node id="160827376" x="-1.0612962919076331E7" y="5083600.780955528" >
		</node>
		<node id="160827395" x="-1.0612883548279395E7" y="5084016.173644116" >
		</node>
		<node id="160829277" x="-1.0613295764353802E7" y="5083046.7785655325" >
		</node>
		<node id="160829281" x="-1.0613133460536228E7" y="5083043.3611895945" >
		</node>
		<node id="160829286" x="-1.061281107929089E7" y="5083038.30941869" >
		</node>
		<node id="160829793" x="-1.0612726253838904E7" y="5083179.908589419" >
		</node>
		<node id="160829795" x="-1.0612654519559037E7" y="5083179.0468043275" >
		</node>
		<node id="160831173" x="-1.0612645547208078E7" y="5083873.9826576" >
		</node>
		<node id="160831175" x="-1.0612489032004025E7" y="5083873.522015123" >
		</node>
		<node id="160831226" x="-1.0612974830261847E7" y="5082296.916481406" >
		</node>
		<node id="160831242" x="-1.0613002214856584E7" y="5082043.013663878" >
		</node>
		<node id="160831490" x="-1.061265289429447E7" y="5082743.528317353" >
		</node>
		<node id="160831494" x="-1.0612653116933454E7" y="5082625.55897325" >
		</node>
		<node id="160833096" x="-1.0613135686926043E7" y="5082897.158067855" >
		</node>
		<node id="160833100" x="-1.061313802463535E7" y="5082750.214280631" >
		</node>
		<node id="160833102" x="-1.0613140362344654E7" y="5082649.925318858" >
		</node>
		<node id="160833111" x="-1.0613142700053962E7" y="5082452.916265989" >
		</node>
		<node id="160833115" x="-1.061314403588785E7" y="5082351.293262287" >
		</node>
		<node id="160833137" x="-1.0613146818875121E7" y="5082053.116164211" >
		</node>
		<node id="160835252" x="-1.0612812982854182E7" y="5082891.363477662" >
		</node>
		<node id="160835254" x="-1.0612814752834085E7" y="5082744.568355781" >
		</node>
		<node id="160835257" x="-1.0612819094294226E7" y="5082449.05338367" >
		</node>
		<node id="160835260" x="-1.0612820875406079E7" y="5082346.241854406" >
		</node>
		<node id="160835269" x="-1.0612837962947916E7" y="5081974.257516635" >
		</node>
		<node id="160836433" x="-1.061267526951212E7" y="5084148.871275524" >
		</node>
		<node id="160836436" x="-1.0612549923765488E7" y="5084152.289043825" >
		</node>
		<node id="160836520" x="-1.0612727367033811E7" y="5083736.221818186" >
		</node>
		<node id="160836620" x="-1.0614579278082652E7" y="5081828.338036951" >
		</node>
		<node id="160843406" x="-1.0612205356545636E7" y="5084778.816189108" >
		</node>
		<node id="160843408" x="-1.061219681834069E7" y="5084705.077023931" >
		</node>
		<node id="160843416" x="-1.0611941317845423E7" y="5084538.281769734" >
		</node>
		<node id="160843423" x="-1.06125558236985E7" y="5084784.745662837" >
		</node>
		<node id="160844006" x="-1.061297527553981E7" y="5082747.0941638565" >
		</node>
		<node id="160844011" x="-1.0612979505680459E7" y="5082451.57911424" >
		</node>
		<node id="160844017" x="-1.0612980284916896E7" y="5082348.916128835" >
		</node>
		<node id="160846284" x="-1.0618472154071538E7" y="5085046.433768248" >
		</node>
		<node id="160846299" x="-1.0618044653831044E7" y="5085023.710951565" >
		</node>
		<node id="160846808" x="-1.0607488449158099E7" y="5085010.633095778" >
		</node>
		<node id="160848820" x="-1.0613005331802323E7" y="5082636.256385682" >
		</node>
		<node id="160849270" x="-1.061311153059654E7" y="5083714.6759693315" >
		</node>
		<node id="160849272" x="-1.0613120324836312E7" y="5083671.58441625" >
		</node>
		<node id="160849283" x="-1.0613124777615944E7" y="5083603.098961951" >
		</node>
		<node id="160849505" x="-1.0612723582171125E7" y="5083319.57822674" >
		</node>
		<node id="160849508" x="-1.0612652716183286E7" y="5083318.70157057" >
		</node>
		<node id="160851498" x="-1.0620195301865375E7" y="5087244.261516754" >
		</node>
		<node id="160851630" x="-1.0617678434970232E7" y="5087240.753462711" >
		</node>
		<node id="160851958" x="-1.0612842026109328E7" y="5086683.553956312" >
		</node>
		<node id="160851961" x="-1.0612815198112048E7" y="5086682.364854584" >
		</node>
		<node id="160852006" x="-1.0610946589139592E7" y="5086655.312829874" >
		</node>
		<node id="160852207" x="-1.0617191512385553E7" y="5087230.496871352" >
		</node>
		<node id="160852219" x="-1.061714995681964E7" y="5087191.834079578" >
		</node>
		<node id="160852411" x="-1.060962723053471E7" y="5087233.231961313" >
		</node>
		<node id="160852781" x="-1.0607487335963191E7" y="5087216.880891597" >
		</node>
		<node id="160858617" x="-1.0609611645806E7" y="5082866.402205924" >
		</node>
		<node id="160859278" x="-1.0612559608561188E7" y="5085214.530777177" >
		</node>
		<node id="160859281" x="-1.061265389616989E7" y="5085211.7070917515" >
		</node>
		<node id="160859406" x="-1.0612647339451881E7" y="5083735.047939666" >
		</node>
		<node id="160859408" x="-1.0612491035754861E7" y="5083733.249974103" >
		</node>
		<node id="160871361" x="-1.061266271267356E7" y="5083046.912288964" >
		</node>
		<node id="160871381" x="-1.061272714439483E7" y="5083039.349488954" >
		</node>
		<node id="160874254" x="-1.0612381608695408E7" y="5083590.156766575" >
		</node>
		<node id="160879220" x="-1.0623958190084862E7" y="5082951.835398266" >
		</node>
		<node id="160879310" x="-1.061803708410567E7" y="5082883.340204689" >
		</node>
		<node id="160880511" x="-1.0612336969579602E7" y="5084006.663469766" >
		</node>
		<node id="160880514" x="-1.0612331960202513E7" y="5084163.433948899" >
		</node>
		<node id="160881380" x="-1.0613880525638938E7" y="5085072.455843289" >
		</node>
		<node id="160881418" x="-1.061332131217694E7" y="5084907.6010191385" >
		</node>
		<node id="160881450" x="-1.0613229306617798E7" y="5084668.534587678" >
		</node>
		<node id="160881458" x="-1.06132462271804E7" y="5084511.012863209" >
		</node>
		<node id="160881460" x="-1.0613426119477523E7" y="5083919.88356273" >
		</node>
		<node id="160881467" x="-1.0613469756717913E7" y="5083778.273510348" >
		</node>
		<node id="160881598" x="-1.0613785570113294E7" y="5082461.682043147" >
		</node>
		<node id="160881609" x="-1.0613795477547975E7" y="5082392.893192645" >
		</node>
		<node id="160881611" x="-1.06137963681039E7" y="5082364.36750675" >
		</node>
		<node id="160881622" x="-1.0613800264286079E7" y="5082055.448654763" >
		</node>
		<node id="160883515" x="-1.0612484022626938E7" y="5084127.175905015" >
		</node>
		<node id="160883519" x="-1.0612487250892172E7" y="5084010.229784045" >
		</node>
		<node id="160883525" x="-1.061249306176959E7" y="5083593.2771565225" >
		</node>
		<node id="160883528" x="-1.0612494809485596E7" y="5083455.35688631" >
		</node>
		<node id="160885672" x="-1.0613467085050134E7" y="5082460.642035278" >
		</node>
		<node id="160889310" x="-1.0612803832392039E7" y="5083599.458503399" >
		</node>
		<node id="160890026" x="-1.0612649131695682E7" y="5083596.382688473" >
		</node>
		<node id="160890028" x="-1.0612650923939483E7" y="5083457.377681868" >
		</node>
		<node id="160890045" x="-1.0612648107556367E7" y="5082888.837631749" >
		</node>
		<node id="160890047" x="-1.0612659528936123E7" y="5082987.910719943" >
		</node>
		<node id="160890059" x="-1.061267493555365E7" y="5084500.461971869" >
		</node>
		<node id="160890094" x="-1.0612624763859147E7" y="5084669.054710847" >
		</node>
		<node id="160890111" x="-1.0612671262010453E7" y="5084334.324108743" >
		</node>
		<node id="160893369" x="-1.0613464747340828E7" y="5082772.500858411" >
		</node>
		<node id="160895941" x="-1.0612798444528686E7" y="5084015.727854483" >
		</node>
		<node id="160897331" x="-1.0612488364087079E7" y="5082362.436083152" >
		</node>
		<node id="160897344" x="-1.0612473937081072E7" y="5082192.799174097" >
		</node>
		<node id="160900553" x="-1.0612388287864856E7" y="5085502.848280252" >
		</node>
		<node id="160900570" x="-1.06125630594654E7" y="5085508.198583567" >
		</node>
		<node id="160901662" x="-1.0613068316370213E7" y="5086284.187536437" >
		</node>
		<node id="160902091" x="-1.061347365290009E7" y="5082047.619214187" >
		</node>
		<node id="160902095" x="-1.0613476881165324E7" y="5081862.80466637" >
		</node>
		<node id="160902343" x="-1.061274239516507E7" y="5084334.175507287" >
		</node>
		<node id="160902705" x="-1.0612684809592482E7" y="5082518.927221401" >
		</node>
		<node id="160902708" x="-1.0612684809592482E7" y="5082446.423653126" >
		</node>
		<node id="160902711" x="-1.0612684987703668E7" y="5082395.463479947" >
		</node>
		<node id="160910107" x="-1.0607500471663106E7" y="5081614.142585178" >
		</node>
		<node id="160910156" x="-1.0607479209640363E7" y="5082866.8479423495" >
		</node>
		<node id="160910230" x="-1.0607487892560646E7" y="5085590.236940037" >
		</node>
		<node id="160926611" x="-1.061244639663905E7" y="5084620.415885626" >
		</node>
		<node id="160926624" x="-1.0612555044462064E7" y="5084666.156882116" >
		</node>
		<node id="160927611" x="-1.0612730038701592E7" y="5082743.37974044" >
		</node>
		<node id="160931122" x="-1.061255014640447E7" y="5084179.036837668" >
		</node>
		<node id="160934317" x="-1.0613861490006015E7" y="5082395.121765415" >
		</node>
		<node id="160937841" x="-1.0612848972445555E7" y="5080650.990443723" >
		</node>
		<node id="160938014" x="-1.0614284170112556E7" y="5070034.175951747" >
		</node>
		<node id="160938292" x="-1.0612828033249337E7" y="5086078.543108493" >
		</node>
		<node id="160945210" x="-1.0612722446712319E7" y="5083458.298927043" >
		</node>
		<node id="160945212" x="-1.0612232885855708E7" y="5083451.969082936" >
		</node>
		<node id="160946199" x="-1.0612765271320429E7" y="5084016.455977558" >
		</node>
		<node id="160946207" x="-1.0612549478487525E7" y="5084012.012941681" >
		</node>
		<node id="160953511" x="-1.0612729971909897E7" y="5082890.026265035" >
		</node>
		<node id="160956866" x="-1.0612564951896746E7" y="5085666.033869013" >
		</node>
		<node id="160957234" x="-1.0610645358597506E7" y="5081941.989243389" >
		</node>
		<node id="160957525" x="-1.0612147848896692E7" y="5082861.305954231" >
		</node>
		<node id="160957527" x="-1.0612049943404539E7" y="5082853.68386854" >
		</node>
		<node id="160963710" x="-1.0618326047239872E7" y="5087247.204715622" >
		</node>
		<node id="160964183" x="-1.0607984043531112E7" y="5087219.853811298" >
		</node>
		<node id="160964269" x="-1.060716027929924E7" y="5087219.853811298" >
		</node>
		<node id="160965159" x="-1.0603302168387327E7" y="5087216.732245634" >
		</node>
		<node id="160972749" x="-1.0617678624213368E7" y="5087257.238354906" >
		</node>
		<node id="160977637" x="-1.0611767681703683E7" y="5088593.143608944" >
		</node>