<?xml version="1.0" encoding="UTF-8"?>
<!DOCTYPE network SYSTEM "http://www.matsim.org/files/dtd/network_v1.dtd">
<network>

<!-- ====================================================================== -->

	<nodes>
		<node id="1040921516" x="-1.1644353007143369E7" y="4616838.252581435" />
		<node id="1147578570" x="-1.164399776438435E7" y="4617821.948437909" />
		<node id="1148478690" x="-1.1645003836546293E7" y="4621061.951052154" />
		<node id="1148478693" x="-1.1641928646745078E7" y="4622418.784477013" />
		<node id="1148478696" x="-1.1645550927315744E7" y="4622960.035818542" />
		<node id="1148478697" x="-1.1645224683284078E7" y="4621525.230226978" />
		<node id="1148478698" x="-1.164554084176988E7" y="4622963.894503463" />
		<node id="1148478700" x="-1.1639278964565469E7" y="4618448.591517289" />
		<node id="1148478701" x="-1.1644705711817998E7" y="4620325.8705366645" />
		<node id="1148478705" x="-1.1639284864498483E7" y="4620846.374909735" />
		<node id="1148478706" x="-1.1645565743939968E7" y="4622967.398531101" />
		<node id="1148478707" x="-1.164555350992793E7" y="4622971.455827754" />
		<node id="1148478712" x="-1.1645505664810788E7" y="4622971.512573171" />
		<node id="1148478715" x="-1.1645238275393903E7" y="4621584.833084895" />
		<node id="1223351743" x="-1.1650771009933615E7" y="4624108.838750634" />
		<node id="1223351764" x="-1.1650826914581891E7" y="4623882.5013030125" />
		<node id="1223351783" x="-1.165084303364416E7" y="4623885.764454056" />
		<node id="1400425391" x="-1.1645022137470579E7" y="4620654.177104681" />
		<node id="1400435815" x="-1.1645469953518143E7" y="4617328.819781297" />
		<node id="1400435820" x="-1.1645368786364907E7" y="4621561.868496905" />
		<node id="1400435824" x="-1.164828671512148E7" y="4621582.19477879" />
		<node id="1400437629" x="-1.1644177033292323E7" y="4617437.640961299" />
		<node id="1400437632" x="-1.1644527622896628E7" y="4617475.115413636" />
		<node id="1400447051" x="-1.1644549296801487E7" y="4618916.234212445" />
		<node id="1400447054" x="-1.1649276701617002E7" y="4615483.274253782" />
		<node id="1400447055" x="-1.1648415433848685E7" y="4616276.284110844" />
		<node id="1400447061" x="-1.1648553213982439E7" y="4615461.599111219" />
		<node id="1400447068" x="-1.1645006608401613E7" y="4619718.315424297" />
		<node id="1400447069" x="-1.1649360903679838E7" y="4615482.579627835" />
		<node id="1400447070" x="-1.1644615309259525E7" y="4617703.878421452" />
		<node id="1400447081" x="-1.1644835944490278E7" y="4619721.633982713" />
		<node id="1400447084" x="-1.1648523491678398E7" y="4615460.734374627" />
		<node id="1400447088" x="-1.1644652823927922E7" y="4619721.78998335" />
		<node id="1400447091" x="-1.164517013673359E7" y="4619559.63568945" />
		<node id="1400447094" x="-1.1644587523914624E7" y="4617679.249359656" />
		<node id="1400458515" x="-1.1647106316636957E7" y="4622645.827394137" />
		<node id="1400458567" x="-1.1645660142868163E7" y="4620884.656046464" />
		<node id="1420863958" x="-1.1643828402911056E7" y="4623911.188692395" />
		<node id="1420863960" x="-1.1642599580448035E7" y="4625092.491924394" />
		<node id="1420863961" x="-1.1642648349516954E7" y="4625090.491236123" />
		<node id="1420863963" x="-1.164284645368277E7" y="4625080.303340192" />
		<node id="1420863966" x="-1.1641960562043088E7" y="4625006.405923537" />
		<node id="1420863967" x="-1.1642649384788219E7" y="4625163.112212843" />
		<node id="1420863979" x="-1.164189682050266E7" y="4625318.770859789" />
		<node id="1420863981" x="-1.1642437810964014E7" y="4625314.584930986" />
		<node id="1420863985" x="-1.1641702211768853E7" y="4625012.83361554" />
		<node id="1420863986" x="-1.164244626011337E7" y="4625145.701861618" />
		<node id="1420863995" x="-1.1641867643664122E7" y="4625114.613035534" />
		<node id="1420863996" x="-1.1643873832395248E7" y="4623323.5104294205" />
		<node id="1420864003" x="-1.1641700953858608E7" y="4624900.753972302" />
		<node id="1420864008" x="-1.1641701009518353E7" y="4624840.848123744" />
		<node id="1420864009" x="-1.164169997424709E7" y="4625031.336309867" />
		<node id="1420864011" x="-1.164295708299272E7" y="4624886.5933446875" />
		<node id="1420864015" x="-1.1641884063289015E7" y="4625103.871733164" />
		<node id="1420864017" x="-1.1641915956323126E7" y="4625318.160707349" />
		<node id="1420864025" x="-1.1641703402887406E7" y="4625095.24464506" />
		<node id="1420864028" x="-1.1643005028297404E7" y="4624906.174177614" />
		<node id="1436961208" x="-1.1646711989604719E7" y="4622177.192482497" />
		<node id="1436965789" x="-1.1646384944072718E7" y="4626858.669718007" />
		<node id="1468100314" x="-1.1648821371503811E7" y="4602159.09649426" />
		<node id="1468100315" x="-1.1648897480639668E7" y="4602218.10610269" />
		<node id="1497951143" x="-1.1645753295018058E7" y="4624744.718553472" />
		<node id="1497951144" x="-1.1645731276022779E7" y="4624743.923980693" />
		<node id="1497951145" x="-1.1645754363685168E7" y="4624860.968050078" />
		<node id="1532040892" x="-1.1648849012133377E7" y="4624725.634634957" />
		<node id="1532040893" x="-1.1648843691061715E7" y="4624506.945388451" />
		<node id="1532040895" x="-1.164884665216017E7" y="4624616.353279356" />
		<node id="1532040898" x="-1.1647937583802504E7" y="4622215.010454446" />
		<node id="1532040903" x="-1.1648849668918371E7" y="4624283.607072119" />
		<node id="1532040908" x="-1.1648847809882874E7" y="4625006.306599408" />
		<node id="1532046947" x="-1.164536235209834E7" y="4621872.894789764" />
		<node id="1532053069" x="-1.164541461659927E7" y="4624782.531775403" />
		<node id="1532053077" x="-1.16456621020912E7" y="4624806.440019349" />
		<node id="1532053089" x="-1.1646053045010915E7" y="4624799.260445893" />
		<node id="1532053092" x="-1.1645410798340736E7" y="4624766.881483201" />
		<node id="1532053098" x="-1.1645421941421762E7" y="4624782.74460819" />
		<node id="1532053112" x="-1.1645806739505589E7" y="4624806.142052762" />
		<node id="1532062534" x="-1.164676023547203E7" y="4627842.7136840485" />
		<node id="1532062535" x="-1.1646788844581164E7" y="4627830.890859269" />
		<node id="1532062536" x="-1.1646788544018539E7" y="4627857.048699921" />
		<node id="1532062539" x="-1.1646520119330388E7" y="4627998.796115937" />
		<node id="1532062541" x="-1.1646493881326407E7" y="4628027.040803013" />
		<node id="1532062545" x="-1.164675540420613E7" y="4627992.593649819" />
		<node id="1532062556" x="-1.1646760190944232E7" y="4627830.294750815" />
		<node id="1532074113" x="-1.1646776065103618E7" y="4628009.526249225" />
		<node id="1541866360" x="-1.1644820504476905E7" y="4619299.462376831" />
		<node id="1541866457" x="-1.164484800039113E7" y="4619650.79575654" />
		<node id="1541870983" x="-1.1645644580403348E7" y="4617721.67320339" />
		<node id="1541876979" x="-1.1646277242465375E7" y="4617896.517433287" />
		<node id="1541892037" x="-1.1646642403791023E7" y="4618335.207883114" />
		<node id="1541895405" x="-1.1648961277839841E7" y="4624730.416252855" />
		<node id="1541895406" x="-1.1648342608637806E7" y="4624905.975531296" />
		<node id="1541895409" x="-1.1648342664297553E7" y="4624957.481812283" />
		<node id="1541895410" x="-1.1645581529043764E7" y="4624806.454208231" />
		<node id="1541895411" x="-1.1648463290097775E7" y="4624955.254124823" />
		<node id="1541895412" x="-1.164837604901284E7" y="4624784.149304693" />
		<node id="1541895414" x="-1.164821962286438E7" y="4624959.752067519" />
		<node id="1541895416" x="-1.1648723443747759E7" y="4624954.643993949" />
		<node id="1541895419" x="-1.1648376104672587E7" y="4624733.05536635" />
		<node id="1541895423" x="-1.1648205262650067E7" y="4624656.365274317" />
		<node id="1541895424" x="-1.1648673439032497E7" y="4624728.018349238" />
		<node id="1541895426" x="-1.1648468455322148E7" y="4624732.133095429" />
		<node id="1541895428" x="-1.164818382251614E7" y="4624518.296172471" />
		<node id="1541895429" x="-1.1648845861791788E7" y="4624953.168328721" />
		<node id="1541895430" x="-1.1648472173393143E7" y="4624618.637647927" />
		<node id="1541895432" x="-1.1648218398349982E7" y="4624913.140990202" />
		<node id="1541895435" x="-1.164816227106272E7" y="4624755.487858432" />
		<node id="1541895436" x="-1.164558676105983E7" y="4624785.851967383" />
		<node id="1541895438" x="-1.1648464492348278E7" y="4624906.4579580715" />
		<node id="1541895440" x="-1.1648254042850932E7" y="4624787.157342297" />
		<node id="1541895441" x="-1.1648179759354725E7" y="4624629.364254966" />
		<node id="1541895444" x="-1.1648464436688531E7" y="4625006.306599408" />
		<node id="1541895447" x="-1.1645670105962588E7" y="4624872.60300428" />
		<node id="1541895448" x="-1.1648156293206066E7" y="4624960.9155735215" />
		<node id="1541895449" x="-1.1648976450686434E7" y="4624611.628468949" />
		<node id="1541895450" x="-1.1648930453472838E7" y="4624942.0724681225" />
		<node id="1541895451" x="-1.164872009303109E7" y="4624727.394043066" />
		<node id="1541895455" x="-1.1648256681122864E7" y="4624734.2330355" />
		<node id="1541895456" x="-1.1648613727257634E7" y="4624901.193831789" />
		<node id="1541895457" x="-1.1648614428570427E7" y="4624956.871681277" />
		<node id="1541895460" x="-1.1648466818925636E7" y="4624781.765577405" />
		<node id="1541895463" x="-1.1648370627753641E7" y="4624514.082192443" />
		<node id="1541895465" x="-1.1646434136155698E7" y="4624795.443639119" />
		<node id="1541895467" x="-1.1648175406762635E7" y="4624718.469306668" />
		<node id="1541907394" x="-1.1645699984113919E7" y="4620827.879739445" />
		<node id="1584283950" x="-1.1647248059744582E7" y="4622907.319517957" />
		<node id="1584283958" x="-1.1646983108224545E7" y="4622184.114891578" />
		<node id="1584283967" x="-1.1646349744849728E7" y="4623425.741307348" />
		<node id="1674946307" x="-1.1638118826228268E7" y="4613114.6593672475" />
		<node id="1674946308" x="-1.1637927579343088E7" y="4613116.68607521" />
		<node id="1674946309" x="-1.1637672089979768E7" y="4613112.958633602" />
		<node id="1674946310" x="-1.1637990096369116E7" y="4612961.551945485" />
		<node id="1674946330" x="-1.1637867455686107E7" y="4612933.63201846" />
		<node id="177849420" x="-1.164711460993902E7" y="4615129.177033139" />
		<node id="177849421" x="-1.1647240556810902E7" y="4615129.3754908815" />
		<node id="177849422" x="-1.164736960949658E7" y="4615128.879346534" />
		<node id="177849447" x="-1.1647216734439874E7" y="4617008.743301392" />
		<node id="177849449" x="-1.1647365657654656E7" y="4616853.2811718015" />
		<node id="177849450" x="-1.1647501322718086E7" y="4616715.30252231" />
		<node id="177849451" x="-1.164763595251025E7" y="4616574.23501673" />
		<node id="177849452" x="-1.1647769791934032E7" y="4616437.195810725" />
		<node id="177849453" x="-1.1647908818846084E7" y="4616297.379704176" />
		<node id="177849454" x="-1.1648042769589355E7" y="4616156.998416813" />
		<node id="177849456" x="-1.1648077412214892E7" y="4616118.919152887" />
		<node id="177849457" x="-1.164817737711762E7" y="4616042.690163315" />
		<node id="177849461" x="-1.1645607110262748E7" y="4611753.666161272" />
		<node id="177849462" x="-1.164566923767056E7" y="4611753.878724923" />
		<node id="177849464" x="-1.1645793926632198E7" y="4611752.603343068" />
		<node id="177849467" x="-1.1645926853236154E7" y="4611751.625550419" />
		<node id="177849469" x="-1.1646053211990153E7" y="4611749.4857436465" />
		<node id="177849470" x="-1.1646179069806444E7" y="4611748.649660324" />
		<node id="177849471" x="-1.1646310137374904E7" y="4611746.6232213685" />
		<node id="177849472" x="-1.1646441405318448E7" y="4611743.874067056" />
		<node id="177849473" x="-1.164645865983952E7" y="4611744.6534664" />
		<node id="177849474" x="-1.164656602748839E7" y="4611741.790945464" />
		<node id="177849476" x="-1.1646602818580097E7" y="4611742.768737181" />
		<node id="177849477" x="-1.1646695347340845E7" y="4611742.952958815" />
		<node id="177849479" x="-1.1646825379638042E7" y="4611743.704016297" />
		<node id="177849480" x="-1.1646957983415473E7" y="4611745.461207601" />
		<node id="177849487" x="-1.164823147839015E7" y="4611575.199264767" />
		<node id="177849489" x="-1.1648279980292289E7" y="4611567.958057638" />
		<node id="177849491" x="-1.1648376572214449E7" y="4611580.442412047" />
		<node id="177849493" x="-1.1648473687338218E7" y="4611579.9747798825" />
		<node id="177849514" x="-1.1644116686996363E7" y="4620958.793354519" />
		<node id="177849515" x="-1.164391288327262E7" y="4620956.850204177" />
		<node id="177849518" x="-1.1646718947072893E7" y="4613978.484090434" />
		<node id="177849520" x="-1.1646714694668347E7" y="4613720.946279144" />
		<node id="177849521" x="-1.1646712401486835E7" y="4613462.068444781" />
		<node id="177849522" x="-1.1646712011868617E7" y="4613182.6322517665" />
		<node id="177849524" x="-1.1646700757468099E7" y="4612949.406059307" />
		<node id="177849525" x="-1.1646701058030723E7" y="4612703.954514697" />
		<node id="177849528" x="-1.1651694149074918E7" y="4610610.533891597" />
		<node id="177849537" x="-1.1651872638746453E7" y="4610470.145039871" />
		<node id="177849545" x="-1.1652049402965887E7" y="4610423.018568903" />
		<node id="177849547" x="-1.1652259184546286E7" y="4610324.076351385" />
		<node id="177849551" x="-1.1652469233293464E7" y="4610174.85010292" />
		<node id="177849553" x="-1.1652516176722731E7" y="4609834.012530104" />
		<node id="177849560" x="-1.1643320719241345E7" y="4624763.064688441" />
		<node id="177849625" x="-1.1641362653926088E7" y="4620981.926800245" />
		<node id="177849653" x="-1.164547117803254E7" y="4617461.688115947" />
		<node id="177849655" x="-1.1645473192915324E7" y="4617590.616418582" />
		<node id="177849657" x="-1.1645476298729118E7" y="4617723.700817945" />
		<node id="177849659" x="-1.1645478358139697E7" y="4617854.3197380835" />
		<node id="177849661" x="-1.1645479215299776E7" y="4617983.820135927" />
		<node id="177849662" x="-1.1645481252446458E7" y="4618115.06626082" />
		<node id="177849663" x="-1.1645484836934062E7" y="4618246.952151584" />
		<node id="177849664" x="-1.16454892006581E7" y="4618377.7195096025" />
		<node id="177849665" x="-1.1645490569887836E7" y="4618509.013195982" />
		<node id="177849666" x="-1.1645490514228093E7" y="4618640.804870096" />
		<node id="177849667" x="-1.1645493831548918E7" y="4618770.726396286" />
		<node id="177849668" x="-1.1645496069070682E7" y="4618902.748312396" />
		<node id="177849669" x="-1.1645499375259558E7" y="4619030.744538186" />
		<node id="177849670" x="-1.1645499286203966E7" y="4619162.854875222" />
		<node id="177849672" x="-1.1645502436545556E7" y="4619294.045123837" />
		<node id="177849673" x="-1.1645504106337918E7" y="4619423.294183344" />
		<node id="177849675" x="-1.1645503405025125E7" y="4619555.8208255805" />
		<node id="177849677" x="-1.1645508013652043E7" y="4619710.770671542" />
		<node id="177849679" x="-1.1645508625909243E7" y="4619895.873984041" />
		<node id="177849681" x="-1.1645511531347953E7" y="4620081.973391016" />
		<node id="177849683" x="-1.1645514392258866E7" y="4620270.2035570005" />
		<node id="177849685" x="-1.1645517230905881E7" y="4620457.4585456215" />
		<node id="177849687" x="-1.1645520203136284E7" y="4620646.021790508" />
		<node id="177849689" x="-1.1645524310825493E7" y="4620830.5604024045" />
		<node id="177849691" x="-1.1645525969485909E7" y="4621020.435379783" />
		<node id="177849693" x="-1.164552920888309E7" y="4621230.15719317" />
		<node id="177849695" x="-1.1645532225641293E7" y="4621426.464994585" />
		<node id="177849697" x="-1.1645536622761179E7" y="4621626.265927008" />
		<node id="177849720" x="-1.1638318255096026E7" y="4615693.365310929" />
		<node id="177849721" x="-1.1638312700253436E7" y="4615905.176024011" />
		<node id="177849734" x="-1.1638687646562325E7" y="4618126.098044591" />
		<node id="177849774" x="-1.1642128231460119E7" y="4622251.8355899425" />
		<node id="177849777" x="-1.164235071459442E7" y="4622522.453311222" />
		<node id="177849779" x="-1.1642521846047616E7" y="4622496.606933253" />
		<node id="177850320" x="-1.1657769777639281E7" y="4610313.49215492" />
		<node id="177852120" x="-1.1644761950424748E7" y="4614972.793520875" />
		<node id="177852207" x="-1.1648666414772628E7" y="4620600.947840215" />
		<node id="177852209" x="-1.164854015620617E7" y="4620412.527249319" />
		<node id="177852410" x="-1.1634651758423617E7" y="4610513.105979222" />
		<node id="177852635" x="-1.1648924564671775E7" y="4602239.413637763" />
		<node id="177852639" x="-1.1648638529240184E7" y="4602578.910191224" />
		<node id="177852718" x="-1.1655145209136795E7" y="4617022.878916475" />
		<node id="177852763" x="-1.1655535628854906E7" y="4617034.079668382" />
		<node id="177852779" x="-1.1637597016115177E7" y="4613970.773453794" />
		<node id="177852789" x="-1.1636825293745251E7" y="4613614.814793167" />
		<node id="177852791" x="-1.163682809899642E7" y="4613555.810808684" />
		<node id="177852805" x="-1.1636936902666721E7" y="4613617.139242423" />
		<node id="177852813" x="-1.1636979538031695E7" y="4613616.969160752" />
		<node id="177853191" x="-1.16358634710809E7" y="4618964.817632871" />
		<node id="177853198" x="-1.1636249081797007E7" y="4618467.933222365" />
		<node id="177853647" x="-1.1639906183104396E7" y="4607495.0111957295" />
		<node id="177853657" x="-1.1639999580157172E7" y="4607117.590123991" />
		<node id="177853984" x="-1.1653960369004589E7" y="4623698.461259641" />
		<node id="177853986" x="-1.1653272158516657E7" y="4623676.93906132" />
		<node id="177853988" x="-1.1653138363620674E7" y="4623752.10379696" />
		<node id="177853992" x="-1.1652141286073586E7" y="4627536.403299563" />
		<node id="177853994" x="-1.1652211395088887E7" y="4627435.2101866705" />
		<node id="177854511" x="-1.1645476510236152E7" y="4612576.589589921" />
		<node id="177854513" x="-1.1645482209794078E7" y="4612436.769176069" />
		<node id="177854519" x="-1.1645520525962807E7" y="4612175.386901719" />
		<node id="177854737" x="-1.1632306969197342E7" y="4617687.274712412" />
		<node id="177854992" x="-1.1637799116650712E7" y="4613960.837513243" />
		<node id="177855340" x="-1.1648631137625994E7" y="4613446.463698024" />
		<node id="177855347" x="-1.1648502841912856E7" y="4613448.136140235" />
		<node id="177857367" x="-1.1654571891495312E7" y="4623705.455629103" />
		<node id="177857369" x="-1.1654462186137134E7" y="4623703.56870949" />
		<node id="177858067" x="-1.163146290029035E7" y="4616914.331501186" />
		<node id="177858068" x="-1.163146290029035E7" y="4616872.222898072" />
		<node id="177858096" x="-1.1632520724883564E7" y="4616186.571613167" />
		<node id="177858683" x="-1.1645439151415039E7" y="4622658.509601716" />
		<node id="177858685" x="-1.164541265737623E7" y="4622102.308768817" />
		<node id="177858687" x="-1.1645379450772127E7" y="4621633.755345919" />
		<node id="177858691" x="-1.164515029960033E7" y="4621243.376647182" />
		<node id="177858740" x="-1.1644866100940334E7" y="4620600.025939576" />
		<node id="177859130" x="-1.1629397367138682E7" y="4610538.043809782" />
		<node id="177859162" x="-1.1628631489042025E7" y="4610322.673625926" />
		<node id="177859165" x="-1.1653379481637731E7" y="4604546.338360762" />
		<node id="177859171" x="-1.1652979065429348E7" y="4604562.62353531" />
		<node id="177859268" x="-1.1643879698932413E7" y="4627832.068883218" />
		<node id="177859271" x="-1.1643078610480819E7" y="4627713.827176692" />
		<node id="177859274" x="-1.1643029641036818E7" y="4627786.679576153" />
		<node id="177859719" x="-1.1645661901716117E7" y="4624786.391143959" />
		<node id="177860114" x="-1.1646466541259468E7" y="4623911.9406379" />
		<node id="177860116" x="-1.164641850689919E7" y="4623913.841783388" />
		<node id="177860145" x="-1.1646274348158613E7" y="4624009.1832613535" />
		<node id="177860146" x="-1.1646226814736044E7" y="4624023.910193427" />
		<node id="177860152" x="-1.1642357404895816E7" y="4612842.361312744" />
		<node id="177860158" x="-1.1642289388686942E7" y="4612950.497346046" />
		<node id="177860257" x="-1.1656564265477631E7" y="4610048.423212073" />
		<node id="177860464" x="-1.1648281471973464E7" y="4611401.893492157" />
		<node id="177860465" x="-1.1648230710285662E7" y="4611401.411697668" />
		<node id="177860516" x="-1.16325117747965E7" y="4615496.954141592" />
		<node id="177861338" x="-1.1655616001527257E7" y="4613626.2669628635" />
		<node id="177861400" x="-1.16568415178014E7" y="4614837.320709363" />
		<node id="177861412" x="-1.1656528843615662E7" y="4610572.616811024" />
		<node id="177861750" x="-1.1636663524261232E7" y="4617199.029873613" />
		<node id="177861752" x="-1.1636630128413994E7" y="4615823.8167187665" />
		<node id="177861864" x="-1.1638923755202299E7" y="4608514.166664649" />
		<node id="177861866" x="-1.1638762230621157E7" y="4608333.54590563" />
		<node id="177861875" x="-1.1638218546228122E7" y="4607885.053449677" />
		<node id="177861915" x="-1.1651081724896317E7" y="4613962.864387642" />
		<node id="177861927" x="-1.1650998602632541E7" y="4613737.642811679" />
		<node id="177862374" x="-1.1649158803144302E7" y="4602675.272104834" />
		<node id="177862377" x="-1.1649108041456502E7" y="4602914.410978181" />
		<node id="177862703" x="-1.164911290611825E7" y="4612110.935167126" />
		<node id="177862704" x="-1.1649108709373448E7" y="4612060.513444669" />
		<node id="177862708" x="-1.1649026121443227E7" y="4612113.868647609" />
		<node id="177862710" x="-1.1649023216004517E7" y="4612063.815365543" />
		<node id="177862715" x="-1.1648940138268538E7" y="4612066.933060046" />
		<node id="177862717" x="-1.1648942253338862E7" y="4612118.474355371" />
		<node id="177862940" x="-1.1646369492927395E7" y="4630953.057259068" />
		<node id="177862965" x="-1.164627632964555E7" y="4628536.934619238" />
		<node id="177862975" x="-1.1646337822532263E7" y="4628011.399765709" />
		<node id="177862989" x="-1.164625467800459E7" y="4627289.283807485" />
		<node id="177863124" x="-1.164681666332191E7" y="4610170.500300692" />
		<node id="177863126" x="-1.1646857751345964E7" y="4609937.04471523" />
		<node id="177863166" x="-1.16477852987391E7" y="4606236.42340262" />
		<node id="177863813" x="-1.1641312237328708E7" y="4622605.837403462" />
		<node id="177863818" x="-1.1641873198506713E7" y="4622541.518957654" />
		<node id="177863820" x="-1.1642172881707879E7" y="4622781.289500059" />
		<node id="177863870" x="-1.1622350865635365E7" y="4611568.779955648" />
		<node id="177864013" x="-1.164793016992442E7" y="4604356.724176677" />
		<node id="177864014" x="-1.164802312169923E7" y="4604415.066631454" />
		<node id="177864345" x="-1.164893962619888E7" y="4611990.422275104" />
		<node id="177864347" x="-1.1649024084296547E7" y="4611985.164748037" />
		<node id="177864349" x="-1.1649109477477932E7" y="4611980.984236522" />
		<node id="177864350" x="-1.1649196362340497E7" y="4611977.668170962" />
		<node id="177864351" x="-1.1649281054209094E7" y="4611975.230721744" />
		<node id="177864352" x="-1.1649362284041524E7" y="4611973.785257943" />
		<node id="177865284" x="-1.1651656434031434E7" y="4617900.402579239" />
		<node id="177865286" x="-1.1651670716322104E7" y="4617925.698601873" />
		<node id="177865294" x="-1.1651808307212727E7" y="4618197.110118157" />
		<node id="177865400" x="-1.1651161874929687E7" y="4618524.327829397" />
		<node id="177865412" x="-1.165106040721383E7" y="4618127.913043567" />
		<node id="177865418" x="-1.1628195339277098E7" y="4619457.840289736" />
		<node id="177865494" x="-1.1645112462105406E7" y="4614945.463506074" />
		<node id="177865603" x="-1.1652633785764754E7" y="4610399.172033235" />
		<node id="177865605" x="-1.1652684068778744E7" y="4610398.846145132" />
		<node id="177865626" x="-1.1645098803203888E7" y="4615256.842853304" />
		<node id="177865802" x="-1.165654880320036E7" y="4626579.820454111" />
		<node id="177865803" x="-1.1656610195899533E7" y="4626371.820203997" />
		<node id="177865958" x="-1.165544512610889E7" y="4607487.007940926" />
		<node id="177866045" x="-1.1654137456050541E7" y="4606905.5491405465" />
		<node id="177866123" x="-1.165641025496212E7" y="4625730.404972619" />
		<node id="177866125" x="-1.1656159274038179E7" y="4626444.833389726" />
		<node id="177866628" x="-1.1648532274786223E7" y="4624142.563499165" />
		<node id="177866831" x="-1.1637583691172129E7" y="4613716.424896805" />
		<node id="177867172" x="-1.1650091437838169E7" y="4602075.396303868" />
		<node id="177867185" x="-1.1649541964831615E7" y="4602266.809104629" />
		<node id="177867645" x="-1.1640787377061566E7" y="4607490.407552826" />
		<node id="177867847" x="-1.1649361515937038E7" y="4611923.052441274" />
		<node id="177867851" x="-1.1649365189480234E7" y="4612048.85044506" />
		<node id="177867853" x="-1.1649366191355651E7" y="4612103.296784659" />
		<node id="177867866" x="-1.164927748085344E7" y="4612053.498637733" />
		<node id="177867868" x="-1.1649195805743042E7" y="4612056.077818716" />
		<node id="177867879" x="-1.16489001189116E7" y="4612031.207171832" />
		<node id="177867880" x="-1.1648874671276003E7" y="4612032.411731694" />
		<node id="177868257" x="-1.1656440756502597E7" y="4616119.500406418" />
		<node id="177868286" x="-1.1657514444123246E7" y="4616251.233149881" />
		<node id="177868291" x="-1.1642868083059829E7" y="4612753.5857372135" />
		<node id="177868292" x="-1.1642865467051798E7" y="4612732.384020682" />
		<node id="177868821" x="-1.1631312730297271E7" y="4615726.566327553" />
		<node id="177868823" x="-1.1631263972360302E7" y="4615716.217579038" />
		<node id="177868825" x="-1.1631236253807096E7" y="4615710.263509264" />
		<node id="177868830" x="-1.1631263304443358E7" y="4615679.784396454" />
		<node id="177869070" x="-1.1636639256612238E7" y="4613044.461819291" />
		<node id="177869073" x="-1.163650756565463E7" y="4613039.07620039" />
		<node id="177869368" x="-1.16514766975816E7" y="4607358.248465037" />
		<node id="177869373" x="-1.1650927224575045E7" y="4607554.433786267" />
		<node id="177869409" x="-1.1645438194067419E7" y="4613706.942756586" />
		<node id="177869413" x="-1.1645339453679085E7" y="4613679.885396974" />
		<node id="177869632" x="-1.1648385054759646E7" y="4614476.271757596" />
		<node id="177869657" x="-1.164687469417246E7" y="4628332.712893" />
		<node id="177869726" x="-1.1646187897442063E7" y="4628010.945579866" />
		<node id="177869738" x="-1.1646239282519013E7" y="4627495.3724236535" />
		<node id="177870175" x="-1.1631063719728313E7" y="4614234.610906662" />
		<node id="177870285" x="-1.1630867519125793E7" y="4613925.289319388" />
		<node id="177870289" x="-1.1631021518509356E7" y="4613928.450098803" />
		<node id="177870297" x="-1.1629912108464109E7" y="4613504.23397769" />
		<node id="177870302" x="-1.1630133300292315E7" y="4613452.643231607" />
		<node id="177870593" x="-1.165343557552914E7" y="4616034.269141604" />
		<node id="177870597" x="-1.1653499829139225E7" y="4616061.488630561" />
		<node id="177870649" x="-1.165674177553765E7" y="4615728.551020234" />
		<node id="177870717" x="-1.1655295401393775E7" y="4613750.994387726" />
		<node id="177870842" x="-1.1650973934233384E7" y="4612067.584941743" />
		<node id="177871009" x="-1.1639776573821265E7" y="4618601.099862809" />
		<node id="177871037" x="-1.1631787730564486E7" y="4615512.647050811" />
		<node id="177871402" x="-1.1632865882096715E7" y="4613566.242427765" />
		<node id="177871411" x="-1.163268084683912E7" y="4613552.423369435" />
		<node id="177871686" x="-1.1649471054315979E7" y="4602266.667525802" />
		<node id="177871692" x="-1.1649180287806027E7" y="4602914.835741324" />
		<node id="177871702" x="-1.165010279242623E7" y="4604477.657689994" />
		<node id="177871704" x="-1.1650082420959415E7" y="4604476.524816779" />
		<node id="177872192" x="-1.1642790215076022E7" y="4614649.50166693" />
		<node id="177872480" x="-1.1646338868935477E7" y="4623808.144302624" />
		<node id="177872500" x="-1.1646397523175176E7" y="4623859.304585225" />
		<node id="177872524" x="-1.1646238514414528E7" y="4623814.599620983" />
		<node id="177872528" x="-1.1646213345077658E7" y="4623754.643347449" />
		<node id="177872536" x="-1.1646098129404686E7" y="4623751.720736327" />
		<node id="177872546" x="-1.1646192595124574E7" y="4623869.335208456" />
		<node id="177872838" x="-1.1654812208012037E7" y="4603531.72354029" />
		<node id="177872948" x="-1.1637341571279654E7" y="4612592.221363648" />
		<node id="177872956" x="-1.1637309622585794E7" y="4612478.420325386" />
		<node id="177874457" x="-1.1646353796879195E7" y="4624181.523737536" />
		<node id="177874459" x="-1.1646350512954215E7" y="4624093.799563125" />
		<node id="177874468" x="-1.1645768846350923E7" y="4625275.407557893" />
		<node id="177874478" x="-1.1645804724622803E7" y="4624784.603348053" />
		<node id="177874489" x="-1.1645749376571983E7" y="4624276.49880433" />
		<node id="177874500" x="-1.1638313167795297E7" y="4608607.382380241" />
		<node id="177874508" x="-1.1641754298158595E7" y="4612712.046853629" />
		<node id="177874511" x="-1.1641738167964382E7" y="4612680.088529349" />
		<node id="177874513" x="-1.1641779512023259E7" y="4612536.511134235" />
		<node id="177875317" x="-1.1644648237564903E7" y="4617344.855768286" />
		<node id="177875341" x="-1.1645654031428117E7" y="4623653.2746262755" />
		<node id="177875345" x="-1.1645492195152402E7" y="4623048.743378539" />
		<node id="177875373" x="-1.1645438617081484E7" y="4622252.956233653" />
		<node id="177875640" x="-1.164701173959758E7" y="4624159.645828779" />
		<node id="177875691" x="-1.1649022882046046E7" y="4611936.344981949" />
		<node id="177875696" x="-1.1642865400260102E7" y="4612888.719360544" />
		<node id="177875698" x="-1.1642786318893842E7" y="4612889.838985803" />
		<node id="177876392" x="-1.1661429895704867E7" y="4604658.579137816" />
		<node id="177876401" x="-1.1634950450881312E7" y="4618944.141998608" />