<?xml version="1.0" encoding="utf-8"?>
<!DOCTYPE population SYSTEM "http://www.matsim.org/files/dtd/population_v5.dtd">

<population>

<!-- ====================================================================== -->

	<person id="1" employed="no">
		<plan selected="yes">
			<act type="h" link="23529547_7_r" end_time="01:13:37" />
			<leg mode="car">
			</leg>
			<act type="w" link="23472078_2_r" end_time="05:17:42" />
			<leg mode="car">
			</leg>
			<act type="h" link="23529547_7_r" end_time="08:42:42" />
			<leg mode="car">
			</leg>
		</plan>

	</person>

<!-- ====================================================================== -->

	<person id="10" employed="no">
		<plan selected="yes">
			<act type="h" link="23473273_1_r" end_time="01:12:39" />
			<leg mode="car">
			</leg>
			<act type="w" link="23474621_3_r" end_time="01:30:53" />
			<leg mode="car">
			</leg>
			<act type="h" link="23473273_1_r" end_time="05:24:29" />
			<leg mode="car">
			</leg>
		</plan>

	</person>

<!-- ====================================================================== -->

	<person id="100" employed="no">
		<plan selected="yes">
			<act type="h" link="23474482_1" end_time="05:29:44" />
			<leg mode="car">
			</leg>
			<act type="w" link="218821050_0" end_time="07:17:38" />
			<leg mode="car">
			</leg>
			<act type="h" link="23474482_1" end_time="15:04:33" />
			<leg mode="car">
			</leg>
		</plan>

	</person>

<!-- ====================================================================== -->

	<person id="101" employed="no">
		<plan selected="yes">
			<act type="h" link="23477238_0" end_time="05:07:48" />
			<leg mode="car">
			</leg>
			<act type="w" link="23475865_0" end_time="07:53:49" />
			<leg mode="car">
			</leg>
			<act type="h" link="23477238_0" end_time="10:22:45" />
			<leg mode="car">
			</leg>
		</plan>

	</person>

<!-- ====================================================================== -->

	<person id="102" employed="no">
		<plan selected="yes">
			<act type="h" link="23475634_0_r" end_time="05:59:35" />
			<leg mode="car">
			</leg>
			<act type="w" link="23474756_0_r" end_time="10:01:06" />
			<leg mode="car">
			</leg>
			<act type="h" link="23475634_0_r" end_time="14:18:08" />
			<leg mode="car">
			</leg>
		</plan>

	</person>

<!-- ====================================================================== -->

	<person id="103" employed="no">
		<plan selected="yes">
			<act type="h" link="23504032_3_r" end_time="05:57:45" />
			<leg mode="car">
			</leg>
			<act type="w" link="23538064_1" end_time="11:53:55" />
			<leg mode="car">
			</leg>
			<act type="h" link="23504032_3_r" end_time="12:10:59" />
			<leg mode="car">
			</leg>
		</plan>

	</person>

<!-- ====================================================================== -->

	<person id="104" employed="no">
		<plan selected="yes">
			<act type="h" link="23528368_0_r" end_time="05:13:06" />
			<leg mode="car">
			</leg>
			<act type="w" link="23531826_1" end_time="11:28:24" />
			<leg mode="car">
			</leg>
			<act type="h" link="23528368_0_r" end_time="11:57:08" />
			<leg mode="car">
			</leg>
		</plan>

	</person>

<!-- ====================================================================== -->

	<person id="105" employed="no">
		<plan selected="yes">
			<act type="h" link="23533052_1" end_time="05:44:40" />
			<leg mode="car">
			</leg>
			<act type="w" link="23474482_1" end_time="09:14:43" />
			<leg mode="car">
			</leg>
			<act type="h" link="23533052_1" end_time="14:49:13" />
			<leg mode="car">
			</leg>
		</plan>

	</person>

<!-- ====================================================================== -->

	<person id="106" employed="no">
		<plan selected="yes">
			<act type="h" link="23474803_0" end_time="05:16:52" />
			<leg mode="car">
			</leg>
			<act type="w" link="23535913_2" end_time="06:11:58" />
			<leg mode="car">
			</leg>
			<act type="h" link="23474803_0" end_time="08:48:04" />
			<leg mode="car">
			</leg>
		</plan>

	</person>

<!-- ====================================================================== -->

	<person id="107" employed="no">
		<plan selected="yes">
			<act type="h" link="23477042_0_r" end_time="05:31:05" />
			<leg mode="car">
			</leg>
			<act type="w" link="23474758_0_r" end_time="08:10:25" />
			<leg mode="car">
			</leg>
			<act type="h" link="23477042_0_r" end_time="10:18:06" />
			<leg mode="car">
			</leg>
		</plan>

	</person>

<!-- ====================================================================== -->

	<person id="108" employed="no">
		<plan selected="yes">
			<act type="h" link="220081847_9_r" end_time="05:34:47" />
			<leg mode="car">
			</leg>
			<act type="w" link="23510545_1_r" end_time="12:51:21" />
			<leg mode="car">
			</leg>
			<act type="h" link="220081847_9_r" end_time="16:07:37" />
			<leg mode="car">
			</leg>
		</plan>

	</person>

<!-- ====================================================================== -->

	<person id="109" employed="no">
		<plan selected="yes">
			<act type="h" link="23512833_0_r" end_time="05:19:44" />
			<leg mode="car">
			</leg>
			<act type="w" link="220081930_2_r" end_time="13:10:09" />
			<leg mode="car">
			</leg>
			<act type="h" link="23512833_0_r" end_time="13:21:15" />
			<leg mode="car">
			</leg>
		</plan>

	</person>

<!-- ====================================================================== -->

	<person id="11" employed="no">
		<plan selected="yes">
			<act type="h" link="23529547_18" end_time="01:39:27" />
			<leg mode="car">
			</leg>
			<act type="w" link="23529487_1" end_time="02:17:56" />
			<leg mode="car">
			</leg>
			<act type="h" link="23529547_18" end_time="09:21:28" />
			<leg mode="car">
			</leg>
		</plan>

	</person>

<!-- ====================================================================== -->

	<person id="110" employed="no">
		<plan selected="yes">
			<act type="h" link="23474832_1_r" end_time="05:21:18" />
			<leg mode="car">
			</leg>
			<act type="w" link="23472347_0_r" end_time="07:42:41" />
			<leg mode="car">
			</leg>
			<act type="h" link="23474832_1_r" end_time="11:34:21" />
			<leg mode="car">
			</leg>
		</plan>

	</person>

<!-- ====================================================================== -->

	<person id="111" employed="no">
		<plan selected="yes">
			<act type="h" link="23529708_0_r" end_time="05:36:15" />
			<leg mode="car">
			</leg>
			<act type="w" link="23474719_0_r" end_time="13:06:10" />
			<leg mode="car">
			</leg>
			<act type="h" link="23529708_0_r" end_time="20:51:47" />
			<leg mode="car">
			</leg>
		</plan>

	</person>

<!-- ====================================================================== -->

	<person id="112" employed="no">
		<plan selected="yes">
			<act type="h" link="23523685_0_r" end_time="05:04:37" />
			<leg mode="car">
			</leg>
			<act type="w" link="23530680_0" end_time="11:42:16" />
			<leg mode="car">
			</leg>
			<act type="h" link="23523685_0_r" end_time="16:51:13" />
			<leg mode="car">
			</leg>
		</plan>

	</person>

<!-- ====================================================================== -->

	<person id="113" employed="no">
		<plan selected="yes">
			<act type="h" link="23472035_0_r" end_time="05:21:10" />
			<leg mode="car">
			</leg>
			<act type="w" link="23530680_1" end_time="10:02:22" />
			<leg mode="car">
			</leg>
			<act type="h" link="23472035_0_r" end_time="12:44:55" />
			<leg mode="car">
			</leg>
		</plan>

	</person>

<!-- ====================================================================== -->

	<person id="114" employed="no">
		<plan selected="yes">
			<act type="h" link="295023338_5" end_time="05:09:48" />
			<leg mode="car">
			</leg>
			<act type="w" link="23536092_1" end_time="06:01:30" />
			<leg mode="car">
			</leg>
			<act type="h" link="295023338_5" end_time="09:44:30" />
			<leg mode="car">
			</leg>
		</plan>

	</person>

<!-- ====================================================================== -->

	<person id="115" employed="no">
		<plan selected="yes">
			<act type="h" link="23475924_0_r" end_time="06:28:11" />
			<leg mode="car">
			</leg>
			<act type="w" link="23535913_2" end_time="10:17:13" />
			<leg mode="car">
			</leg>
			<act type="h" link="23475924_0_r" end_time="14:34:48" />
			<leg mode="car">
			</leg>
		</plan>

	</person>

<!-- ====================================================================== -->

	<person id="116" employed="no">
		<plan selected="yes">
			<act type="h" link="23529708_1" end_time="06:12:11" />
			<leg mode="car">
			</leg>
			<act type="w" link="23514402_2_r" end_time="08:46:23" />
			<leg mode="car">
			</leg>
			<act type="h" link="23529708_1" end_time="14:21:16" />
			<leg mode="car">
			</leg>
		</plan>

	</person>

<!-- ====================================================================== -->

	<person id="117" employed="no">
		<plan selected="yes">
			<act type="h" link="23473228_0_r" end_time="06:58:40" />
			<leg mode="car">
			</leg>
			<act type="w" link="23515909_0_r" end_time="11:46:41" />
			<leg mode="car">
			</leg>
			<act type="h" link="23473228_0_r" end_time="17:03:52" />
			<leg mode="car">
			</leg>
		</plan>

	</person>

<!-- ====================================================================== -->

	<person id="118" employed="no">
		<plan selected="yes">
			<act type="h" link="23476149_1" end_time="06:56:34" />
			<leg mode="car">
			</leg>
			<act type="w" link="23477714_0_r" end_time="14:49:58" />
			<leg mode="car">
			</leg>
			<act type="h" link="23476149_1" end_time="14:57:44" />
			<leg mode="car">
			</leg>
		</plan>

	</person>

<!-- ====================================================================== -->

	<person id="119" employed="no">
		<plan selected="yes">
			<act type="h" link="23533656_0" end_time="06:29:41" />
			<leg mode="car">
			</leg>
			<act type="w" link="23465486_0_r" end_time="09:42:00" />
			<leg mode="car">
			</leg>
			<act type="h" link="23533656_0" end_time="16:45:00" />
			<leg mode="car">
			</leg>
		</plan>

	</person>

<!-- ====================================================================== -->

	<person id="12" employed="no">
		<plan selected="yes">
			<act type="h" link="23533656_0" end_time="01:12:00" />
			<leg mode="car">
			</leg>
			<act type="w" link="23524232_0_r" end_time="05:56:48" />
			<leg mode="car">
			</leg>
			<act type="h" link="23533656_0" end_time="09:10:53" />
			<leg mode="car">
			</leg>
		</plan>

	</person>

<!-- ====================================================================== -->

	<person id="120" employed="no">
		<plan selected="yes">
			<act type="h" link="23532766_8" end_time="06:53:56" />
			<leg mode="car">
			</leg>
			<act type="w" link="23531573_0" end_time="11:15:26" />
			<leg mode="car">
			</leg>
			<act type="h" link="23532766_8" end_time="15:16:59" />
			<leg mode="car">
			</leg>
		</plan>

	</person>

<!-- ====================================================================== -->

	<person id="121" employed="no">
		<plan selected="yes">
			<act type="h" link="132500854_5_r" end_time="06:16:00" />
			<leg mode="car">
			</leg>
			<act type="w" link="23531903_0_r" end_time="12:33:34" />
			<leg mode="car">
			</leg>
			<act type="h" link="132500854_5_r" end_time="13:42:54" />
			<leg mode="car">
			</leg>
		</plan>

	</person>

<!-- ====================================================================== -->

	<person id="122" employed="no">
		<plan selected="yes">
			<act type="h" link="23474719_24" end_time="06:59:01" />
			<leg mode="car">
			</leg>
			<act type="w" link="23474756_0" end_time="07:01:25" />
			<leg mode="car">
			</leg>
			<act type="h" link="23474719_24" end_time="10:26:56" />
			<leg mode="car">
			</leg>
		</plan>

	</person>

<!-- ====================================================================== -->

	<person id="123" employed="no">
		<plan selected="yes">
			<act type="h" link="23537129_3" end_time="06:36:50" />
			<leg mode="car">
			</leg>
			<act type="w" link="23535913_1" end_time="10:55:47" />
			<leg mode="car">
			</leg>
			<act type="h" link="23537129_3" end_time="11:43:20" />
			<leg mode="car">
			</leg>
		</plan>

	</person>

<!-- ====================================================================== -->

	<person id="124" employed="no">
		<plan selected="yes">
			<act type="h" link="23477054_1_r" end_time="06:52:16" />
			<leg mode="car">
			</leg>
			<act type="w" link="23535913_1" end_time="10:43:13" />
			<leg mode="car">
			</leg>
			<act type="h" link="23477054_1_r" end_time="14:51:27" />
			<leg mode="car">
			</leg>
		</plan>

	</person>

<!-- ====================================================================== -->

	<person id="125" employed="no">
		<plan selected="yes">
			<act type="h" link="23477054_1_r" end_time="06:30:25" />
			<leg mode="car">
			</leg>
			<act type="w" link="23473228_0_r" end_time="10:18:53" />
			<leg mode="car">
			</leg>
			<act type="h" link="23477054_1_r" end_time="15:09:32" />
			<leg mode="car">
			</leg>
		</plan>

	</person>

<!-- ====================================================================== -->

	<person id="126" employed="no">
		<plan selected="yes">
			<act type="h" link="23529547_8_r" end_time="06:43:33" />
			<leg mode="car">
			</leg>
			<act type="w" link="23475924_1" end_time="11:27:20" />
			<leg mode="car">
			</leg>
			<act type="h" link="23529547_8_r" end_time="17:07:50" />
			<leg mode="car">
			</leg>
		</plan>

	</person>

<!-- ====================================================================== -->

	<person id="127" employed="no">
		<plan selected="yes">
			<act type="h" link="23532766_22_r" end_time="06:50:23" />
			<leg mode="car">
			</leg>
			<act type="w" link="23509055_0" end_time="13:30:20" />
			<leg mode="car">
			</leg>
			<act type="h" link="23532766_22_r" end_time="21:27:19" />
			<leg mode="car">
			</leg>
		</plan>

	</person>

<!-- ====================================================================== -->

	<person id="128" employed="no">
		<plan selected="yes">
			<act type="h" link="23505681_0_r" end_time="06:45:38" />
			<leg mode="car">
			</leg>
			<act type="w" link="23475924_1_r" end_time="09:55:59" />
			<leg mode="car">
			</leg>
			<act type="h" link="23505681_0_r" end_time="13:01:39" />
			<leg mode="car">
			</leg>
		</plan>

	</person>

<!-- ====================================================================== -->

	<person id="129" employed="no">
		<plan selected="yes">
			<act type="h" link="23471619_0_r" end_time="06:08:15" />
			<leg mode="car">
			</leg>
			<act type="w" link="23531965_0" end_time="08:12:26" />
			<leg mode="car">
			</leg>
			<act type="h" link="23471619_0_r" end_time="13:49:41" />
			<leg mode="car">
			</leg>
		</plan>

	</person>

<!-- ====================================================================== -->

	<person id="13" employed="no">
		<plan selected="yes">
			<act type="h" link="23524677_0" end_time="01:56:39" />
			<leg mode="car">
			</leg>
			<act type="w" link="295023338_4_r" end_time="03:48:31" />
			<leg mode="car">
			</leg>
			<act type="h" link="23524677_0" end_time="07:37:18" />
			<leg mode="car">
			</leg>
		</plan>

	</person>

<!-- ====================================================================== -->

	<person id="130" employed="no">
		<plan selected="yes">
			<act type="h" link="132500854_1_r" end_time="06:16:22" />
			<leg mode="car">
			</leg>
			<act type="w" link="23504032_0" end_time="11:08:39" />
			<leg mode="car">
			</leg>
			<act type="h" link="132500854_1_r" end_time="17:39:23" />
			<leg mode="car">
			</leg>
		</plan>

	</person>

<!-- ====================================================================== -->

	<person id="131" employed="no">
		<plan selected="yes">
			<act type="h" link="23532435_0" end_time="06:33:58" />
			<leg mode="car">
			</leg>
			<act type="w" link="23511368_0" end_time="10:46:46" />
			<leg mode="car">
			</leg>
			<act type="h" link="23532435_0" end_time="12:38:07" />
			<leg mode="car">
			</leg>
		</plan>

	</person>

<!-- ====================================================================== -->

	<person id="132" employed="no">
		<plan selected="yes">
			<act type="h" link="23477287_1_r" end_time="06:31:27" />
			<leg mode="car">
			</leg>
			<act type="w" link="23476042_0" end_time="11:31:32" />
			<leg mode="car">
			</leg>
			<act type="h" link="23477287_1_r" end_time="18:22:25" />
			<leg mode="car">
			</leg>
		</plan>

	</person>

<!-- ====================================================================== -->

	<person id="133" employed="no">
		<plan selected="yes">
			<act type="h" link="23538458_1" end_time="06:56:21" />
			<leg mode="car">
			</leg>
			<act type="w" link="23472846_1" end_time="13:17:45" />
			<leg mode="car">
			</leg>
			<act type="h" link="23538458_1" end_time="21:17:11" />
			<leg mode="car">
			</leg>
		</plan>

	</person>

<!-- ====================================================================== -->

	<person id="134" employed="no">
		<plan selected="yes">
			<act type="h" link="23474719_16" end_time="06:47:15" />
			<leg mode="car">
			</leg>
			<act type="w" link="23505377_1" end_time="12:32:35" />
			<leg mode="car">
			</leg>
			<act type="h" link="23474719_16" end_time="18:42:07" />
			<leg mode="car">
			</leg>
		</plan>

	</person>

<!-- ====================================================================== -->

	<person id="135" employed="no">
		<plan selected="yes">
			<act type="h" link="23474719_17" end_time="06:36:53" />
			<leg mode="car">
			</leg>
			<act type="w" link="23529547_1" end_time="09:36:22" />
			<leg mode="car">
			</leg>
			<act type="h" link="23474719_17" end_time="10:44:29" />
			<leg mode="car">
			</leg>
		</plan>

	</person>

<!-- ====================================================================== -->

	<person id="136" employed="no">
		<plan selected="yes">
			<act type="h" link="23474831_0_r" end_time="06:07:42" />
			<leg mode="car">
			</leg>
			<act type="w" link="23468360_0" end_time="11:14:12" />
			<leg mode="car">
			</leg>
			<act type="h" link="23474831_0_r" end_time="13:58:33" />
			<leg mode="car">
			</leg>
		</plan>

	</person>

<!-- ====================================================================== -->

	<person id="137" employed="no">
		<plan selected="yes">
			<act type="h" link="23537360_3_r" end_time="06:14:50" />
			<leg mode="car">
			</leg>
			<act type="w" link="23523661_0_r" end_time="06:39:17" />
			<leg mode="car">
			</leg>
			<act type="h" link="23537360_3_r" end_time="10:16:35" />
			<leg mode="car">
			</leg>
		</plan>

	</person>

<!-- ====================================================================== -->

	<person id="138" employed="no">
		<plan selected="yes">
			<act type="h" link="23539006_0_r" end_time="07:49:38" />
			<leg mode="car">
			</leg>
			<act type="w" link="23474719_17_r" end_time="08:19:55" />
			<leg mode="car">
			</leg>
			<act type="h" link="23539006_0_r" end_time="10:26:59" />
			<leg mode="car">
			</leg>
		</plan>

	</person>

<!-- ====================================================================== -->

	<person id="139" employed="no">
		<plan selected="yes">
			<act type="h" link="23524232_0_r" end_time="07:17:06" />
			<leg mode="car">
			</leg>
			<act type="w" link="23474804_1" end_time="12:11:29" />
			<leg mode="car">
			</leg>
			<act type="h" link="23524232_0_r" end_time="13:43:07" />
			<leg mode="car">
			</leg>
		</plan>

	</person>

<!-- ====================================================================== -->

	<person id="14" employed="no">
		<plan selected="yes">
			<act type="h" link="220081847_9" end_time="01:44:12" />
			<leg mode="car">
			</leg>
			<act type="w" link="23533052_1_r" end_time="05:53:10" />
			<leg mode="car">
			</leg>
			<act type="h" link="220081847_9" end_time="10:16:07" />
			<leg mode="car">
			</leg>
		</plan>

	</person>

<!-- ====================================================================== -->

	<person id="140" employed="no">
		<plan selected="yes">
			<act type="h" link="23529547_9_r" end_time="07:36:35" />
			<leg mode="car">
			</leg>
			<act type="w" link="295023436_1_r" end_time="15:01:52" />
			<leg mode="car">
			</leg>
			<act type="h" link="23529547_9_r" end_time="18:57:34" />
			<leg mode="car">
			</leg>
		</plan>

	</person>

<!-- ====================================================================== -->

	<person id="141" employed="no">
		<plan selected="yes">
			<act type="h" link="23477795_1_r" end_time="07:52:53" />
			<leg mode="car">
			</leg>
			<act type="w" link="23474621_1_r" end_time="10:37:40" />
			<leg mode="car">
			</leg>
			<act type="h" link="23477795_1_r" end_time="18:16:17" />
			<leg mode="car">
			</leg>
		</plan>

	</person>

<!-- ====================================================================== -->

	<person id="142" employed="no">
		<plan selected="yes">
			<act type="h" link="23533795_0" end_time="07:18:48" />
			<leg mode="car">
			</leg>
			<act type="w" link="132500854_6" end_time="07:36:14" />
			<leg mode="car">
			</leg>
			<act type="h" link="23533795_0" end_time="13:23:31" />
			<leg mode="car">
			</leg>
		</plan>

	</person>

<!-- ====================================================================== -->

	<person id="143" employed="no">
		<plan selected="yes">
			<act type="h" link="23472988_0" end_time="07:02:30" />
			<leg mode="car">
			</leg>
			<act type="w" link="23529547_1" end_time="11:08:40" />
			<leg mode="car">
			</leg>
			<act type="h" link="23472988_0" end_time="14:03:47" />
			<leg mode="car">
			</leg>
		</plan>

	</person>

<!-- ====================================================================== -->

	<person id="144" employed="no">
		<plan selected="yes">
			<act type="h" link="23530177_1" end_time="07:32:42" />
			<leg mode="car">
			</leg>
			<act type="w" link="23474621_2" end_time="14:35:51" />
			<leg mode="car">
			</leg>
			<act type="h" link="23530177_1" end_time="22:24:24" />
			<leg mode="car">
			</leg>
		</plan>

	</person>

<!-- ====================================================================== -->

	<person id="145" employed="no">
		<plan selected="yes">
			<act type="h" link="23509735_3" end_time="07:52:32" />
			<leg mode="car">
			</leg>
			<act type="w" link="23525236_1_r" end_time="12:29:47" />
			<leg mode="car">
			</leg>
			<act type="h" link="23509735_3" end_time="17:28:05" />
			<leg mode="car">
			</leg>
		</plan>

	</person>

<!-- ====================================================================== -->

	<person id="146" employed="no">
		<plan selected="yes">
			<act type="h" link="23473226_0" end_time="07:44:08" />
			<leg mode="car">
			</leg>
			<act type="w" link="23525236_1_r" end_time="14:04:08" />
			<leg mode="car">
			</leg>
			<act type="h" link="23473226_0" end_time="16:36:44" />
			<leg mode="car">
			</leg>
		</plan>

	</person>

<!-- ====================================================================== -->

	<person id="147" employed="no">
		<plan selected="yes">
			<act type="h" link="23473226_0" end_time="07:42:53" />
			<leg mode="car">
			</leg>
			<act type="w" link="23532766_25_r" end_time="13:43:32" />
			<leg mode="car">
			</leg>
			<act type="h" link="23473226_0" end_time="18:26:45" />
			<leg mode="car">
			</leg>
		</plan>

	</person>

<!-- ====================================================================== -->

	<person id="148" employed="no">
		<plan selected="yes">
			<act type="h" link="23527297_0" end_time="07:53:40" />
			<leg mode="car">
			</leg>
			<act type="w" link="23472988_0_r" end_time="13:23:07" />
			<leg mode="car">
			</leg>
			<act type="h" link="23527297_0" end_time="18:28:16" />
			<leg mode="car">
			</leg>
		</plan>

	</person>

<!-- ====================================================================== -->

	<person id="149" employed="no">
		<plan selected="yes">
			<act type="h" link="23466064_0" end_time="07:17:06" />
			<leg mode="car">
			</leg>
			<act type="w" link="23529434_0" end_time="14:43:57" />
			<leg mode="car">
			</leg>
			<act type="h" link="23466064_0" end_time="21:32:04" />
			<leg mode="car">
			</leg>
		</plan>

	</person>

<!-- ====================================================================== -->

	<person id="15" employed="no">
		<plan selected="yes">
			<act type="h" link="23511399_1" end_time="01:48:55" />
			<leg mode="car">
			</leg>
			<act type="w" link="23532766_11" end_time="05:42:02" />
			<leg mode="car">
			</leg>
			<act type="h" link="23511399_1" end_time="12:23:09" />
			<leg mode="car">
			</leg>
		</plan>

	</person>

<!-- ====================================================================== -->

	<person id="150" employed="no">
		<plan selected="yes">
			<act type="h" link="23475924_1_r" end_time="07:51:13" />
			<leg mode="car">
			</leg>
			<act type="w" link="23531903_0" end_time="11:59:58" />
			<leg mode="car">
			</leg>
			<act type="h" link="23475924_1_r" end_time="18:59:44" />
			<leg mode="car">
			</leg>
		</plan>

	</person>

<!-- ====================================================================== -->

	<person id="151" employed="no">
		<plan selected="yes">
			<act type="h" link="220081847_9_r" end_time="07:33:30" />
			<leg mode="car">
			</leg>
			<act type="w" link="23474692_2_r" end_time="12:31:59" />
			<leg mode="car">
			</leg>
			<act type="h" link="220081847_9_r" end_time="16:13:05" />
			<leg mode="car">
			</leg>
		</plan>

	</person>

<!-- ====================================================================== -->

	<person id="152" employed="no">
		<plan selected="yes">
			<act type="h" link="23509735_1" end_time="07:16:09" />
			<leg mode="car">
			</leg>
			<act type="w" link="42699467_3" end_time="08:54:43" />
			<leg mode="car">
			</leg>
			<act type="h" link="23509735_1" end_time="12:12:26" />
			<leg mode="car">
			</leg>
		</plan>

	</person>

<!-- ====================================================================== -->

	<person id="153" employed="no">
		<plan selected="yes">
			<act type="h" link="23515675_0" end_time="07:39:32" />
			<leg mode="car">
			</leg>
			<act type="w" link="42699471_0_r" end_time="10:56:08" />
			<leg mode="car">
			</leg>
			<act type="h" link="23515675_0" end_time="13:38:04" />
			<leg mode="car">
			</leg>
		</plan>

	</person>

<!-- ====================================================================== -->

	<person id="154" employed="no">
		<plan selected="yes">
			<act type="h" link="23529758_0" end_time="07:20:17" />
			<leg mode="car">
			</leg>
			<act type="w" link="23504032_2_r" end_time="14:59:42" />
			<leg mode="car">
			</leg>
			<act type="h" link="23529758_0" end_time="18:31:26" />
			<leg mode="car">
			</leg>
		</plan>

	</person>

<!-- ====================================================================== -->

	<person id="155" employed="no">
		<plan selected="yes">
			<act type="h" link="23515909_2" end_time="07:57:32" />
			<leg mode="car">
			</leg>
			<act type="w" link="23473721_0_r" end_time="14:38:42" />
			<leg mode="car">
			</leg>
			<act type="h" link="23515909_2" end_time="19:34:35" />
			<leg mode="car">
			</leg>
		</plan>

	</person>

<!-- ====================================================================== -->

	<person id="156" employed="no">
		<plan selected="yes">
			<act type="h" link="23532435_0_r" end_time="07:32:08" />
			<leg mode="car">
			</leg>
			<act type="w" link="23530829_0" end_time="13:14:33" />
			<leg mode="car">
			</leg>
			<act type="h" link="23532435_0_r" end_time="20:29:34" />
			<leg mode="car">
			</leg>
		</plan>

	</person>

<!-- ====================================================================== -->

	<person id="157" employed="no">
		<plan selected="yes">
			<act type="h" link="23474756_0_r" end_time="07:57:14" />
			<leg mode="car">
			</leg>
			<act type="w" link="220081847_8_r" end_time="13:42:26" />
			<leg mode="car">
			</leg>
			<act type="h" link="23474756_0_r" end_time="18:15:20" />
			<leg mode="car">
			</leg>
		</plan>

	</person>

<!-- ====================================================================== -->

	<person id="158" employed="no">
		<plan selected="yes">
			<act type="h" link="23518404_0_r" end_time="07:23:37" />
			<leg mode="car">
			</leg>
			<act type="w" link="132500854_9_r" end_time="08:37:56" />
			<leg mode="car">
			</leg>
			<act type="h" link="23518404_0_r" end_time="14:47:50" />
			<leg mode="car">
			</leg>
		</plan>

	</person>

<!-- ====================================================================== -->

	<person id="159" employed="no">
		<plan selected="yes">
			<act type="h" link="23468360_0_r" end_time="07:16:33" />
			<leg mode="car">
			</leg>
			<act type="w" link="220080998_0" end_time="09:40:27" />
			<leg mode="car">
			</leg>
			<act type="h" link="23468360_0_r" end_time="13:52:41" />
			<leg mode="car">
			</leg>
		</plan>

	</person>

<!-- ====================================================================== -->

	<person id="16" employed="no">
		<plan selected="yes">
			<act type="h" link="23511323_1_r" end_time="01:31:35" />
			<leg mode="car">
			</leg>
			<act type="w" link="220081930_0_r" end_time="09:26:05" />
			<leg mode="car">
			</leg>
			<act type="h" link="23511323_1_r" end_time="09:51:46" />
			<leg mode="car">
			</leg>
		</plan>

	</person>

<!-- ====================================================================== -->

	<person id="160" employed="no">
		<plan selected="yes">
			<act type="h" link="23515909_4_r" end_time="07:13:25" />
			<leg mode="car">
			</leg>
			<act type="w" link="23513821_1_r" end_time="08:29:19" />
			<leg mode="car">
			</leg>
			<act type="h" link="23515909_4_r" end_time="12:24:08" />
			<leg mode="car">
			</leg>
		</plan>

	</person>

<!-- ====================================================================== -->

	<person id="161" employed="no">
		<plan selected="yes">
			<act type="h" link="23528726_1" end_time="07:29:42" />
			<leg mode="car">
			</leg>
			<act type="w" link="23511323_0" end_time="12:47:53" />