<?xml version="1.0" encoding="utf-8"?>
<!DOCTYPE population SYSTEM "http://www.matsim.org/files/dtd/population_v5.dtd">

<population>

<!-- ====================================================================== -->

	<person id="1" employed="no">
		<plan selected="yes">
			<act type="h" x="0.0" y="0.0" link="2" end_time="06:00:00" />
			<leg mode="car">
			</leg>
			<act type="w" x="100000.0" y="100000.0" link="50" end_time="16:00:00" />
			<leg mode="car">
			</leg>
			<act type="h" x="0.0" y="0.0" />
			<leg mode="car">
			</leg>
		</plan>

	</person>

<!-- ====================================================================== -->

	<person id="10" employed="no">
		<plan selected="yes">
			<act type="h" x="0.0" y="0.0" end_time="06:51:16" />
			<leg mode="car">
			</leg>
			<act type="w" x="100000.0" y="100000.0" end_time="11:18:59" />
			<leg mode="car">
			</leg>
			<act type="h" x="0.0" y="0.0" />
			<leg mode="car">
			</leg>
		</plan>

	</person>

<!-- ====================================================================== -->

	<person id="11" employed="no">
		<plan selected="yes">
			<act type="h" x="0.0" y="0.0" end_time="06:40:42" />
			<leg mode="car">
			</leg>
			<act type="w" x="100000.0" y="100000.0" end_time="08:33:12" />
			<leg mode="car">
			</leg>
			<act type="h" x="0.0" y="0.0" />
			<leg mode="car">
			</leg>
		</plan>

	</person>

<!-- ====================================================================== -->

	<person id="12" employed="no">
		<plan selected="yes">
			<act type="h" x="0.0" y="0.0" end_time="07:12:56" />
			<leg mode="car">
			</leg>
			<act type="w" x="100000.0" y="100000.0" end_time="10:03:21" />
			<leg mode="car">
			</leg>
			<act type="h" x="0.0" y="0.0" />
			<leg mode="car">
			</leg>
		</plan>

	</person>

<!-- ====================================================================== -->

	<person id="13" employed="no">
		<plan selected="yes">
			<act type="h" x="0.0" y="0.0" end_time="07:13:19" />
			<leg mode="car">
			</leg>
			<act type="w" x="100000.0" y="100000.0" end_time="10:04:46" />
			<leg mode="car">
			</leg>
			<act type="h" x="0.0" y="0.0" />
			<leg mode="car">
			</leg>
		</plan>

	</person>

<!-- ====================================================================== -->

	<person id="14" employed="no">
		<plan selected="yes">
			<act type="h" x="0.0" y="0.0" end_time="07:41:38" />
			<leg mode="car">
			</leg>
			<act type="w" x="100000.0" y="100000.0" end_time="15:36:33" />
			<leg mode="car">
			</leg>
			<act type="h" x="0.0" y="0.0" />
			<leg mode="car">
			</leg>
		</plan>

	</person>

<!-- ====================================================================== -->

	<person id="15" employed="no">
		<plan selected="yes">
			<act type="h" x="0.0" y="0.0" end_time="08:11:45" />
			<leg mode="car">
			</leg>
			<act type="w" x="100000.0" y="100000.0" end_time="12:41:18" />
			<leg mode="car">
			</leg>
			<act type="h" x="0.0" y="0.0" />
			<leg mode="car">
			</leg>
		</plan>

	</person>

<!-- ====================================================================== -->

	<person id="16" employed="no">
		<plan selected="yes">
			<act type="h" x="0.0" y="0.0" end_time="08:27:14" />
			<leg mode="car">
			</leg>
			<act type="w" x="100000.0" y="100000.0" end_time="14:00:16" />
			<leg mode="car">
			</leg>
			<act type="h" x="0.0" y="0.0" />
			<leg mode="car">
			</leg>
		</plan>

	</person>

<!-- ====================================================================== -->

	<person id="17" employed="no">
		<plan selected="yes">
			<act type="h" x="0.0" y="0.0" end_time="08:49:32" />
			<leg mode="car">
			</leg>
			<act type="w" x="100000.0" y="100000.0" end_time="16:33:52" />
			<leg mode="car">
			</leg>
			<act type="h" x="0.0" y="0.0" />
			<leg mode="car">
			</leg>
		</plan>

	</person>

<!-- ====================================================================== -->

	<person id="18" employed="no">
		<plan selected="yes">
			<act type="h" x="0.0" y="0.0" end_time="08:10:53" />
			<leg mode="car">
			</leg>
			<act type="w" x="100000.0" y="100000.0" end_time="10:31:20" />
			<leg mode="car">
			</leg>
			<act type="h" x="0.0" y="0.0" />
			<leg mode="car">
			</leg>
		</plan>

	</person>

<!-- ====================================================================== -->

	<person id="19" employed="no">
		<plan selected="yes">
			<act type="h" x="0.0" y="0.0" end_time="08:05:07" />
			<leg mode="car">
			</leg>
			<act type="w" x="100000.0" y="100000.0" end_time="08:26:20" />
			<leg mode="car">
			</leg>
			<act type="h" x="0.0" y="0.0" />
			<leg mode="car">
			</leg>
		</plan>

	</person>

<!-- ====================================================================== -->

	<person id="2" employed="no">
		<plan selected="yes">
			<act type="h" x="0.0" y="0.0" end_time="02:52:59" />
			<leg mode="car">
			</leg>
			<act type="w" x="100000.0" y="100000.0" end_time="04:56:15" />
			<leg mode="car">
			</leg>
			<act type="h" x="0.0" y="0.0" />
			<leg mode="car">
			</leg>
		</plan>

	</person>

<!-- ====================================================================== -->

	<person id="20" employed="no">
		<plan selected="yes">
			<act type="h" x="0.0" y="0.0" end_time="08:08:31" />
			<leg mode="car">
			</leg>
			<act type="w" x="100000.0" y="100000.0" end_time="13:57:19" />
			<leg mode="car">
			</leg>
			<act type="h" x="0.0" y="0.0" />
			<leg mode="car">
			</leg>
		</plan>

	</person>

<!-- ====================================================================== -->

	<person id="21" employed="no">
		<plan selected="yes">
			<act type="h" x="0.0" y="0.0" end_time="09:17:06" />
			<leg mode="car">
			</leg>
			<act type="w" x="100000.0" y="100000.0" end_time="12:45:07" />
			<leg mode="car">
			</leg>
			<act type="h" x="0.0" y="0.0" />
			<leg mode="car">
			</leg>
		</plan>

	</person>

<!-- ====================================================================== -->

	<person id="22" employed="no">
		<plan selected="yes">
			<act type="h" x="0.0" y="0.0" end_time="09:38:10" />
			<leg mode="car">
			</leg>
			<act type="w" x="100000.0" y="100000.0" end_time="11:40:47" />
			<leg mode="car">
			</leg>
			<act type="h" x="0.0" y="0.0" />
			<leg mode="car">
			</leg>
		</plan>

	</person>

<!-- ====================================================================== -->

	<person id="23" employed="no">
		<plan selected="yes">
			<act type="h" x="0.0" y="0.0" end_time="09:29:34" />
			<leg mode="car">
			</leg>
			<act type="w" x="100000.0" y="100000.0" end_time="11:32:03" />
			<leg mode="car">
			</leg>
			<act type="h" x="0.0" y="0.0" />
			<leg mode="car">
			</leg>
		</plan>

	</person>

<!-- ====================================================================== -->

	<person id="24" employed="no">
		<plan selected="yes">
			<act type="h" x="0.0" y="0.0" end_time="09:39:43" />
			<leg mode="car">
			</leg>
			<act type="w" x="100000.0" y="100000.0" end_time="14:29:35" />
			<leg mode="car">
			</leg>
			<act type="h" x="0.0" y="0.0" />
			<leg mode="car">
			</leg>
		</plan>

	</person>

<!-- ====================================================================== -->

	<person id="25" employed="no">
		<plan selected="yes">
			<act type="h" x="0.0" y="0.0" end_time="09:09:36" />
			<leg mode="car">
			</leg>
			<act type="w" x="100000.0" y="100000.0" end_time="14:10:56" />
			<leg mode="car">
			</leg>
			<act type="h" x="0.0" y="0.0" />
			<leg mode="car">
			</leg>
		</plan>

	</person>

<!-- ====================================================================== -->

	<person id="26" employed="no">
		<plan selected="yes">
			<act type="h" x="0.0" y="0.0" end_time="09:08:51" />
			<leg mode="car">
			</leg>
			<act type="w" x="100000.0" y="100000.0" end_time="12:18:27" />
			<leg mode="car">
			</leg>
			<act type="h" x="0.0" y="0.0" />
			<leg mode="car">
			</leg>
		</plan>

	</person>

<!-- ====================================================================== -->

	<person id="27" employed="no">
		<plan selected="yes">
			<act type="h" x="0.0" y="0.0" end_time="09:02:10" />
			<leg mode="car">
			</leg>
			<act type="w" x="100000.0" y="100000.0" end_time="10:48:11" />
			<leg mode="car">
			</leg>
			<act type="h" x="0.0" y="0.0" />
			<leg mode="car">
			</leg>
		</plan>

	</person>

<!-- ====================================================================== -->

	<person id="28" employed="no">
		<plan selected="yes">
			<act type="h" x="0.0" y="0.0" end_time="10:53:40" />
			<leg mode="car">
			</leg>
			<act type="w" x="100000.0" y="100000.0" end_time="11:17:10" />
			<leg mode="car">
			</leg>
			<act type="h" x="0.0" y="0.0" />
			<leg mode="car">
			</leg>
		</plan>

	</person>

<!-- ====================================================================== -->

	<person id="29" employed="no">
		<plan selected="yes">
			<act type="h" x="0.0" y="0.0" end_time="10:29:27" />
			<leg mode="car">
			</leg>
			<act type="w" x="100000.0" y="100000.0" end_time="11:10:52" />
			<leg mode="car">
			</leg>
			<act type="h" x="0.0" y="0.0" />
			<leg mode="car">
			</leg>
		</plan>

	</person>

<!-- ====================================================================== -->

	<person id="3" employed="no">
		<plan selected="yes">
			<act type="h" x="0.0" y="0.0" end_time="02:13:03" />
			<leg mode="car">
			</leg>
			<act type="w" x="100000.0" y="100000.0" end_time="06:17:59" />
			<leg mode="car">
			</leg>
			<act type="h" x="0.0" y="0.0" />
			<leg mode="car">
			</leg>
		</plan>

	</person>

<!-- ====================================================================== -->

	<person id="30" employed="no">
		<plan selected="yes">
			<act type="h" x="0.0" y="0.0" end_time="10:46:26" />
			<leg mode="car">
			</leg>
			<act type="w" x="100000.0" y="100000.0" end_time="11:24:06" />
			<leg mode="car">
			</leg>
			<act type="h" x="0.0" y="0.0" />
			<leg mode="car">
			</leg>
		</plan>

	</person>

<!-- ====================================================================== -->

	<person id="31" employed="no">
		<plan selected="yes">
			<act type="h" x="0.0" y="0.0" end_time="10:15:19" />
			<leg mode="car">
			</leg>
			<act type="w" x="100000.0" y="100000.0" end_time="11:58:25" />
			<leg mode="car">
			</leg>
			<act type="h" x="0.0" y="0.0" />
			<leg mode="car">
			</leg>
		</plan>

	</person>

<!-- ====================================================================== -->

	<person id="32" employed="no">
		<plan selected="yes">
			<act type="h" x="0.0" y="0.0" end_time="10:44:43" />
			<leg mode="car">
			</leg>
			<act type="w" x="100000.0" y="100000.0" end_time="16:59:12" />
			<leg mode="car">
			</leg>
			<act type="h" x="0.0" y="0.0" />
			<leg mode="car">
			</leg>
		</plan>

	</person>

<!-- ====================================================================== -->

	<person id="33" employed="no">
		<plan selected="yes">
			<act type="h" x="0.0" y="0.0" end_time="10:08:53" />
			<leg mode="car">
			</leg>
			<act type="w" x="100000.0" y="100000.0" end_time="15:10:28" />
			<leg mode="car">
			</leg>
			<act type="h" x="0.0" y="0.0" />
			<leg mode="car">
			</leg>
		</plan>

	</person>

<!-- ====================================================================== -->

	<person id="34" employed="no">
		<plan selected="yes">
			<act type="h" x="0.0" y="0.0" end_time="11:45:07" />
			<leg mode="car">
			</leg>
			<act type="w" x="100000.0" y="100000.0" end_time="18:28:56" />
			<leg mode="car">
			</leg>
			<act type="h" x="0.0" y="0.0" />
			<leg mode="car">
			</leg>
		</plan>

	</person>

<!-- ====================================================================== -->

	<person id="35" employed="no">
		<plan selected="yes">
			<act type="h" x="0.0" y="0.0" end_time="11:39:09" />
			<leg mode="car">
			</leg>
			<act type="w" x="100000.0" y="100000.0" end_time="19:27:36" />
			<leg mode="car">
			</leg>
			<act type="h" x="0.0" y="0.0" />
			<leg mode="car">
			</leg>
		</plan>

	</person>

<!-- ====================================================================== -->

	<person id="36" employed="no">
		<plan selected="yes">
			<act type="h" x="0.0" y="0.0" end_time="11:43:00" />
			<leg mode="car">
			</leg>
			<act type="w" x="100000.0" y="100000.0" end_time="17:10:41" />
			<leg mode="car">
			</leg>
			<act type="h" x="0.0" y="0.0" />
			<leg mode="car">
			</leg>
		</plan>

	</person>

<!-- ====================================================================== -->

	<person id="37" employed="no">
		<plan selected="yes">
			<act type="h" x="0.0" y="0.0" end_time="11:05:42" />
			<leg mode="car">
			</leg>
			<act type="w" x="100000.0" y="100000.0" end_time="16:39:57" />
			<leg mode="car">
			</leg>
			<act type="h" x="0.0" y="0.0" />
			<leg mode="car">
			</leg>
		</plan>

	</person>

<!-- ====================================================================== -->

	<person id="38" employed="no">
		<plan selected="yes">
			<act type="h" x="0.0" y="0.0" end_time="11:02:45" />
			<leg mode="car">
			</leg>
			<act type="w" x="100000.0" y="100000.0" end_time="15:59:43" />
			<leg mode="car">
			</leg>
			<act type="h" x="0.0" y="0.0" />
			<leg mode="car">
			</leg>
		</plan>

	</person>

<!-- ====================================================================== -->

	<person id="39" employed="no">
		<plan selected="yes">
			<act type="h" x="0.0" y="0.0" end_time="12:26:50" />
			<leg mode="car">
			</leg>
			<act type="w" x="100000.0" y="100000.0" end_time="13:23:36" />
			<leg mode="car">
			</leg>
			<act type="h" x="0.0" y="0.0" />
			<leg mode="car">
			</leg>
		</plan>

	</person>

<!-- ====================================================================== -->

	<person id="4" employed="no">
		<plan selected="yes">
			<act type="h" x="0.0" y="0.0" end_time="03:55:26" />
			<leg mode="car">
			</leg>
			<act type="w" x="100000.0" y="100000.0" end_time="05:10:51" />
			<leg mode="car">
			</leg>
			<act type="h" x="0.0" y="0.0" />
			<leg mode="car">
			</leg>
		</plan>

	</person>

<!-- ====================================================================== -->

	<person id="40" employed="no">
		<plan selected="yes">
			<act type="h" x="0.0" y="0.0" end_time="12:23:13" />
			<leg mode="car">
			</leg>
			<act type="w" x="100000.0" y="100000.0" end_time="15:35:45" />
			<leg mode="car">
			</leg>
			<act type="h" x="0.0" y="0.0" />
			<leg mode="car">
			</leg>
		</plan>

	</person>

<!-- ====================================================================== -->

	<person id="41" employed="no">
		<plan selected="yes">
			<act type="h" x="0.0" y="0.0" end_time="12:09:28" />
			<leg mode="car">
			</leg>
			<act type="w" x="100000.0" y="100000.0" end_time="14:03:43" />
			<leg mode="car">
			</leg>
			<act type="h" x="0.0" y="0.0" />
			<leg mode="car">
			</leg>
		</plan>

	</person>

<!-- ====================================================================== -->

	<person id="42" employed="no">
		<plan selected="yes">
			<act type="h" x="0.0" y="0.0" end_time="12:22:47" />
			<leg mode="car">
			</leg>
			<act type="w" x="100000.0" y="100000.0" end_time="13:21:12" />
			<leg mode="car">
			</leg>
			<act type="h" x="0.0" y="0.0" />
			<leg mode="car">
			</leg>
		</plan>

	</person>

<!-- ====================================================================== -->

	<person id="43" employed="no">
		<plan selected="yes">
			<act type="h" x="0.0" y="0.0" end_time="13:33:00" />
			<leg mode="car">
			</leg>
			<act type="w" x="100000.0" y="100000.0" end_time="14:07:45" />
			<leg mode="car">
			</leg>
			<act type="h" x="0.0" y="0.0" />
			<leg mode="car">
			</leg>
		</plan>

	</person>

<!-- ====================================================================== -->

	<person id="44" employed="no">
		<plan selected="yes">
			<act type="h" x="0.0" y="0.0" end_time="13:53:44" />
			<leg mode="car">
			</leg>
			<act type="w" x="100000.0" y="100000.0" end_time="14:49:20" />
			<leg mode="car">
			</leg>
			<act type="h" x="0.0" y="0.0" />
			<leg mode="car">
			</leg>
		</plan>

	</person>

<!-- ====================================================================== -->

	<person id="45" employed="no">
		<plan selected="yes">
			<act type="h" x="0.0" y="0.0" end_time="13:07:00" />
			<leg mode="car">
			</leg>
			<act type="w" x="100000.0" y="100000.0" end_time="16:42:42" />
			<leg mode="car">
			</leg>
			<act type="h" x="0.0" y="0.0" />
			<leg mode="car">
			</leg>
		</plan>

	</person>

<!-- ====================================================================== -->

	<person id="46" employed="no">
		<plan selected="yes">
			<act type="h" x="0.0" y="0.0" end_time="13:05:57" />
			<leg mode="car">
			</leg>
			<act type="w" x="100000.0" y="100000.0" end_time="13:53:31" />
			<leg mode="car">
			</leg>
			<act type="h" x="0.0" y="0.0" />
			<leg mode="car">
			</leg>
		</plan>

	</person>

<!-- ====================================================================== -->

	<person id="47" employed="no">
		<plan selected="yes">
			<act type="h" x="0.0" y="0.0" end_time="14:01:04" />
			<leg mode="car">
			</leg>
			<act type="w" x="100000.0" y="100000.0" end_time="16:44:49" />
			<leg mode="car">
			</leg>
			<act type="h" x="0.0" y="0.0" />
			<leg mode="car">
			</leg>
		</plan>

	</person>

<!-- ====================================================================== -->

	<person id="48" employed="no">
		<plan selected="yes">
			<act type="h" x="0.0" y="0.0" end_time="14:15:32" />
			<leg mode="car">
			</leg>
			<act type="w" x="100000.0" y="100000.0" end_time="15:19:42" />
			<leg mode="car">
			</leg>
			<act type="h" x="0.0" y="0.0" />
			<leg mode="car">
			</leg>
		</plan>

	</person>

<!-- ====================================================================== -->

	<person id="49" employed="no">
		<plan selected="yes">
			<act type="h" x="0.0" y="0.0" end_time="14:28:16" />
			<leg mode="car">
			</leg>
			<act type="w" x="100000.0" y="100000.0" end_time="21:46:22" />
			<leg mode="car">
			</leg>
			<act type="h" x="0.0" y="0.0" />
			<leg mode="car">
			</leg>
		</plan>

	</person>

<!-- ====================================================================== -->

	<person id="5" employed="no">
		<plan selected="yes">
			<act type="h" x="0.0" y="0.0" end_time="03:37:03" />
			<leg mode="car">
			</leg>
			<act type="w" x="100000.0" y="100000.0" end_time="11:05:56" />
			<leg mode="car">
			</leg>
			<act type="h" x="0.0" y="0.0" />
			<leg mode="car">
			</leg>
		</plan>

	</person>

<!-- ====================================================================== -->

	<person id="50" employed="no">
		<plan selected="yes">
			<act type="h" x="0.0" y="0.0" end_time="15:44:58" />
			<leg mode="car">
			</leg>
			<act type="w" x="100000.0" y="100000.0" end_time="20:14:58" />
			<leg mode="car">
			</leg>
			<act type="h" x="0.0" y="0.0" />
			<leg mode="car">
			</leg>
		</plan>

	</person>

<!-- ====================================================================== -->

	<person id="51" employed="no">
		<plan selected="yes">
			<act type="h" x="0.0" y="0.0" end_time="15:43:38" />
			<leg mode="car">
			</leg>
			<act type="w" x="100000.0" y="100000.0" end_time="22:36:53" />
			<leg mode="car">
			</leg>
			<act type="h" x="0.0" y="0.0" />
			<leg mode="car">
			</leg>
		</plan>

	</person>

<!-- ====================================================================== -->

	<person id="52" employed="no">
		<plan selected="yes">
			<act type="h" x="0.0" y="0.0" end_time="15:13:27" />
			<leg mode="car">
			</leg>
			<act type="w" x="100000.0" y="100000.0" end_time="23:01:30" />
			<leg mode="car">
			</leg>
			<act type="h" x="0.0" y="0.0" />
			<leg mode="car">
			</leg>
		</plan>

	</person>

<!-- ====================================================================== -->

	<person id="53" employed="no">
		<plan selected="yes">
			<act type="h" x="0.0" y="0.0" end_time="15:43:59" />
			<leg mode="car">
			</leg>
			<act type="w" x="100000.0" y="100000.0" end_time="19:05:32" />
			<leg mode="car">
			</leg>
			<act type="h" x="0.0" y="0.0" />
			<leg mode="car">
			</leg>
		</plan>

	</person>

<!-- ====================================================================== -->

	<person id="54" employed="no">
		<plan selected="yes">
			<act type="h" x="0.0" y="0.0" end_time="16:45:19" />
			<leg mode="car">
			</leg>
			<act type="w" x="100000.0" y="100000.0" end_time="22:27:02" />
			<leg mode="car">
			</leg>
			<act type="h" x="0.0" y="0.0" />
			<leg mode="car">
			</leg>
		</plan>

	</person>

<!-- ====================================================================== -->

	<person id="55" employed="no">
		<plan selected="yes">
			<act type="h" x="0.0" y="0.0" end_time="16:36:11" />
			<leg mode="car">
			</leg>
			<act type="w" x="100000.0" y="100000.0" end_time="20:13:22" />
			<leg mode="car">
			</leg>
			<act type="h" x="0.0" y="0.0" />
			<leg mode="car">
			</leg>
		</plan>

	</person>

<!-- ====================================================================== -->

	<person id="56" employed="no">
		<plan selected="yes">
			<act type="h" x="0.0" y="0.0" end_time="16:31:04" />
			<leg mode="car">
			</leg>
			<act type="w" x="100000.0" y="100000.0" end_time="23:17:23" />
			<leg mode="car">
			</leg>
			<act type="h" x="0.0" y="0.0" />
			<leg mode="car">
			</leg>
		</plan>

	</person>

<!-- ====================================================================== -->

	<person id="57" employed="no">
		<plan selected="yes">
			<act type="h" x="0.0" y="0.0" end_time="16:57:21" />
			<leg mode="car">
			</leg>
			<act type="w" x="100000.0" y="100000.0" end_time="23:35:29" />
			<leg mode="car">
			</leg>
			<act type="h" x="0.0" y="0.0" />
			<leg mode="car">
			</leg>
		</plan>

	</person>

<!-- ====================================================================== -->

	<person id="58" employed="no">
		<plan selected="yes">
			<act type="h" x="0.0" y="0.0" end_time="16:49:31" />
			<leg mode="car">
			</leg>
			<act type="w" x="100000.0" y="100000.0" end_time="18:47:35" />
			<leg mode="car">
			</leg>
			<act type="h" x="0.0" y="0.0" />
			<leg mode="car">
			</leg>
		</plan>

	</person>

<!-- ====================================================================== -->

	<person id="59" employed="no">
		<plan selected="yes">
			<act type="h" x="0.0" y="0.0" end_time="17:06:07" />
			<leg mode="car">
			</leg>
			<act type="w" x="100000.0" y="100000.0" end_time="20:47:00" />
			<leg mode="car">
			</leg>
			<act type="h" x="0.0" y="0.0" />
			<leg mode="car">
			</leg>
		</plan>

	</person>

<!-- ====================================================================== -->

	<person id="6" employed="no">
		<plan selected="yes">
			<act type="h" x="0.0" y="0.0" end_time="04:54:44" />
			<leg mode="car">
			</leg>
			<act type="w" x="100000.0" y="100000.0" end_time="11:44:18" />
			<leg mode="car">
			</leg>
			<act type="h" x="0.0" y="0.0" />
			<leg mode="car">
			</leg>
		</plan>

	</person>

<!-- ====================================================================== -->

	<person id="60" employed="no">
		<plan selected="yes">
			<act type="h" x="0.0" y="0.0" end_time="17:18:16" />
			<leg mode="car">
			</leg>
			<act type="w" x="100000.0" y="100000.0" end_time="23:49:04" />
			<leg mode="car">
			</leg>
			<act type="h" x="0.0" y="0.0" />
			<leg mode="car">
			</leg>
		</plan>

	</person>

<!-- ====================================================================== -->

	<person id="61" employed="no">
		<plan selected="yes">
			<act type="h" x="0.0" y="0.0" end_time="17:02:19" />
			<leg mode="car">
			</leg>
			<act type="w" x="100000.0" y="100000.0" end_time="18:56:05" />
			<leg mode="car">
			</leg>
			<act type="h" x="0.0" y="0.0" />
			<leg mode="car">
			</leg>
		</plan>

	</person>

<!-- ====================================================================== -->

	<person id="62" employed="no">
		<plan selected="yes">
			<act type="h" x="0.0" y="0.0" end_time="17:55:24" />
			<leg mode="car">
			</leg>
			<act type="w" x="100000.0" y="100000.0" end_time="25:32:48" />
			<leg mode="car">
			</leg>
			<act type="h" x="0.0" y="0.0" />
			<leg mode="car">
			</leg>
		</plan>

	</person>

<!-- ====================================================================== -->

	<person id="63" employed="no">
		<plan selected="yes">
			<act type="h" x="0.0" y="0.0" end_time="17:17:51" />
			<leg mode="car">
			</leg>
			<act type="w" x="100000.0" y="100000.0" end_time="18:41:04" />
			<leg mode="car">
			</leg>
			<act type="h" x="0.0" y="0.0" />
			<leg mode="car">
			</leg>
		</plan>

	</person>

<!-- ====================================================================== -->

	<person id="64" employed="no">
		<plan selected="yes">
			<act type="h" x="0.0" y="0.0" end_time="17:10:54" />
			<leg mode="car">
			</leg>
			<act type="w" x="100000.0" y="100000.0" end_time="23:42:02" />
			<leg mode="car">
			</leg>
			<act type="h" x="0.0" y="0.0" />
			<leg mode="car">
			</leg>
		</plan>

	</person>

<!-- ====================================================================== -->

	<person id="65" employed="no">
		<plan selected="yes">
			<act type="h" x="0.0" y="0.0" end_time="17:20:00" />
			<leg mode="car">
			</leg>
			<act type="w" x="100000.0" y="100000.0" end_time="19:07:52" />
			<leg mode="car">
			</leg>
			<act type="h" x="0.0" y="0.0" />
			<leg mode="car">
			</leg>
		</plan>

	</person>

<!-- ====================================================================== -->

	<person id="66" employed="no">
		<plan selected="yes">
			<act type="h" x="0.0" y="0.0" end_time="18:08:14" />
			<leg mode="car">
			</leg>
			<act type="w" x="100000.0" y="100000.0" end_time="21:05:35" />
			<leg mode="car">
			</leg>
			<act type="h" x="0.0" y="0.0" />
			<leg mode="car">
			</leg>
		</plan>

	</person>

<!-- ====================================================================== -->

	<person id="67" employed="no">
		<plan selected="yes">
			<act type="h" x="0.0" y="0.0" end_time="18:21:29" />
			<leg mode="car">
			</leg>
			<act type="w" x="100000.0" y="100000.0" end_time="22:28:58" />
			<leg mode="car">
			</leg>
			<act type="h" x="0.0" y="0.0" />
			<leg mode="car">
			</leg>
		</plan>

	</person>

<!-- ====================================================================== -->

	<person id="68" employed="no">
		<plan selected="yes">
			<act type="h" x="0.0" y="0.0" end_time="18:54:29" />
			<leg mode="car">
			</leg>
			<act type="w" x="100000.0" y="100000.0" end_time="19:48:06" />
			<leg mode="car">
			</leg>
			<act type="h" x="0.0" y="0.0" />
			<leg mode="car">
			</leg>
		</plan>

	</person>

<!-- ====================================================================== -->

	<person id="69" employed="no">
		<plan selected="yes">
			<act type="h" x="0.0" y="0.0" end_time="18:49:23" />
			<leg mode="car">
			</leg>
			<act type="w" x="100000.0" y="100000.0" end_time="20:02:47" />
			<leg mode="car">
			</leg>
			<act type="h" x="0.0" y="0.0" />
			<leg mode="car">
			</leg>
		</plan>

	</person>

<!-- ====================================================================== -->

	<person id="7" employed="no">
		<plan selected="yes">
			<act type="h" x="0.0" y="0.0" end_time="04:30:39" />
			<leg mode="car">
			</leg>
			<act type="w" x="100000.0" y="100000.0" end_time="09:42:19" />
			<leg mode="car">
			</leg>
			<act type="h" x="0.0" y="0.0" />
			<leg mode="car">
			</leg>
		</plan>

	</person>

<!-- ====================================================================== -->

	<person id="70" employed="no">
		<plan selected="yes">
			<act type="h" x="0.0" y="0.0" end_time="18:42:28" />
			<leg mode="car">
			</leg>
			<act type="w" x="100000.0" y="100000.0" end_time="25:45:08" />
			<leg mode="car">
			</leg>
			<act type="h" x="0.0" y="0.0" />
			<leg mode="car">
			</leg>
		</plan>

	</person>

<!-- ====================================================================== -->

	<person id="71" employed="no">
		<plan selected="yes">
			<act type="h" x="0.0" y="0.0" end_time="19:20:31" />
			<leg mode="car">
			</leg>
			<act type="w" x="100000.0" y="100000.0" end_time="23:15:36" />
			<leg mode="car">
			</leg>
			<act type="h" x="0.0" y="0.0" />
			<leg mode="car">
			</leg>
		</plan>

	</person>

<!-- ====================================================================== -->

	<person id="72" employed="no">
		<plan selected="yes">
			<act type="h" x="0.0" y="0.0" end_time="19:12:33" />
			<leg mode="car">
			</leg>
			<act type="w" x="100000.0" y="100000.0" end_time="24:30:44" />
			<leg mode="car">
			</leg>
			<act type="h" x="0.0" y="0.0" />
			<leg mode="car">
			</leg>
		</plan>

	</person>

<!-- ====================================================================== -->

	<person id="73" employed="no">
		<plan selected="yes">
			<act type="h" x="0.0" y="0.0" end_time="19:22:02" />
			<leg mode="car">
			</leg>
			<act type="w" x="100000.0" y="100000.0" end_time="25:43:16" />
			<leg mode="car">
			</leg>
			<act type="h" x="0.0" y="0.0" />
			<leg mode="car">
			</leg>
		</plan>

	</person>

<!-- ====================================================================== -->

	<person id="74" employed="no">
		<plan selected="yes">
			<act type="h" x="0.0" y="0.0" end_time="19:35:03" />
			<leg mode="car">
			</leg>
			<act type="w" x="100000.0" y="100000.0" end_time="19:38:18" />
			<leg mode="car">
			</leg>
			<act type="h" x="0.0" y="0.0" />
			<leg mode="car">
			</leg>
		</plan>

	</person>

<!-- ====================================================================== -->

	<person id="75" employed="no">
		<plan selected="yes">
			<act type="h" x="0.0" y="0.0" end_time="19:16:14" />
			<leg mode="car">
			</leg>
			<act type="w" x="100000.0" y="100000.0" end_time="25:22:33" />
			<leg mode="car">
			</leg>
			<act type="h" x="0.0" y="0.0" />
			<leg mode="car">
			</leg>
		</plan>

	</person>
