<?xml version="1.0" encoding="utf-8"?>
<!DOCTYPE population SYSTEM "http://www.matsim.org/files/dtd/population_v5.dtd">

<population>

<!-- ====================================================================== -->

	<person id="1" employed="no">
		<plan selected="yes">
			<act type="h" link="2" end_time="01:06:08" />
			<leg mode="car">
			</leg>
			<act type="w" link="50" end_time="05:04:38" />
			<leg mode="car">
			</leg>
			<act type="h" link="2" />
			<leg mode="car">
			</leg>
		</plan>

	</person>

<!-- ====================================================================== -->

	<person id="10" employed="no">
		<plan selected="yes">
			<act type="h" link="2" end_time="06:57:58" />
			<leg mode="car">
			</leg>
			<act type="w" link="50" end_time="13:15:03" />
			<leg mode="car">
			</leg>
			<act type="h" link="2" />
			<leg mode="car">
			</leg>
		</plan>

	</person>

<!-- ====================================================================== -->

	<person id="11" employed="no">
		<plan selected="yes">
			<act type="h" link="2" end_time="06:16:53" />
			<leg mode="car">
			</leg>
			<act type="w" link="50" end_time="13:26:23" />
			<leg mode="car">
			</leg>
			<act type="h" link="2" />
			<leg mode="car">
			</leg>
		</plan>

	</person>

<!-- ====================================================================== -->

	<person id="12" employed="no">
		<plan selected="yes">
			<act type="h" link="2" end_time="07:08:13" />
			<leg mode="car">
			</leg>
			<act type="w" link="50" end_time="11:33:11" />
			<leg mode="car">
			</leg>
			<act type="h" link="2" />
			<leg mode="car">
			</leg>
		</plan>

	</person>

<!-- ====================================================================== -->

	<person id="13" employed="no">
		<plan selected="yes">
			<act type="h" link="2" end_time="07:58:26" />
			<leg mode="car">
			</leg>
			<act type="w" link="50" end_time="08:44:23" />
			<leg mode="car">
			</leg>
			<act type="h" link="2" />
			<leg mode="car">
			</leg>
		</plan>

	</person>

<!-- ====================================================================== -->

	<person id="14" employed="no">
		<plan selected="yes">
			<act type="h" link="2" end_time="07:01:05" />
			<leg mode="car">
			</leg>
			<act type="w" link="50" end_time="09:53:25" />
			<leg mode="car">
			</leg>
			<act type="h" link="2" />
			<leg mode="car">
			</leg>
		</plan>

	</person>

<!-- ====================================================================== -->

	<person id="15" employed="no">
		<plan selected="yes">
			<act type="h" link="2" end_time="08:08:42" />
			<leg mode="car">
			</leg>
			<act type="w" link="50" end_time="15:24:30" />
			<leg mode="car">
			</leg>
			<act type="h" link="2" />
			<leg mode="car">
			</leg>
		</plan>

	</person>

<!-- ====================================================================== -->

	<person id="16" employed="no">
		<plan selected="yes">
			<act type="h" link="2" end_time="08:04:29" />
			<leg mode="car">
			</leg>
			<act type="w" link="50" end_time="14:16:47" />
			<leg mode="car">
			</leg>
			<act type="h" link="2" />
			<leg mode="car">
			</leg>
		</plan>

	</person>

<!-- ====================================================================== -->

	<person id="17" employed="no">
		<plan selected="yes">
			<act type="h" link="2" end_time="08:10:14" />
			<leg mode="car">
			</leg>
			<act type="w" link="50" end_time="15:14:36" />
			<leg mode="car">
			</leg>
			<act type="h" link="2" />
			<leg mode="car">
			</leg>
		</plan>

	</person>

<!-- ====================================================================== -->

	<person id="18" employed="no">
		<plan selected="yes">
			<act type="h" link="2" end_time="08:35:44" />
			<leg mode="car">
			</leg>
			<act type="w" link="50" end_time="13:48:43" />
			<leg mode="car">
			</leg>
			<act type="h" link="2" />
			<leg mode="car">
			</leg>
		</plan>

	</person>

<!-- ====================================================================== -->

	<person id="19" employed="no">
		<plan selected="yes">
			<act type="h" link="2" end_time="08:28:19" />
			<leg mode="car">
			</leg>
			<act type="w" link="50" end_time="10:11:08" />
			<leg mode="car">
			</leg>
			<act type="h" link="2" />
			<leg mode="car">
			</leg>
		</plan>

	</person>

<!-- ====================================================================== -->

	<person id="2" employed="no">
		<plan selected="yes">
			<act type="h" link="2" end_time="02:30:22" />
			<leg mode="car">
			</leg>
			<act type="w" link="50" end_time="05:16:17" />
			<leg mode="car">
			</leg>
			<act type="h" link="2" />
			<leg mode="car">
			</leg>
		</plan>

	</person>

<!-- ====================================================================== -->

	<person id="20" employed="no">
		<plan selected="yes">
			<act type="h" link="2" end_time="08:36:05" />
			<leg mode="car">
			</leg>
			<act type="w" link="50" end_time="11:13:44" />
			<leg mode="car">
			</leg>
			<act type="h" link="2" />
			<leg mode="car">
			</leg>
		</plan>

	</person>

<!-- ====================================================================== -->

	<person id="21" employed="no">
		<plan selected="yes">
			<act type="h" link="2" end_time="09:27:11" />
			<leg mode="car">
			</leg>
			<act type="w" link="50" end_time="09:44:20" />
			<leg mode="car">
			</leg>
			<act type="h" link="2" />
			<leg mode="car">
			</leg>
		</plan>

	</person>

<!-- ====================================================================== -->

	<person id="22" employed="no">
		<plan selected="yes">
			<act type="h" link="2" end_time="09:35:38" />
			<leg mode="car">
			</leg>
			<act type="w" link="50" end_time="12:05:22" />
			<leg mode="car">
			</leg>
			<act type="h" link="2" />
			<leg mode="car">
			</leg>
		</plan>

	</person>

<!-- ====================================================================== -->

	<person id="23" employed="no">
		<plan selected="yes">
			<act type="h" link="2" end_time="09:16:22" />
			<leg mode="car">
			</leg>
			<act type="w" link="50" end_time="13:19:59" />
			<leg mode="car">
			</leg>
			<act type="h" link="2" />
			<leg mode="car">
			</leg>
		</plan>

	</person>

<!-- ====================================================================== -->

	<person id="24" employed="no">
		<plan selected="yes">
			<act type="h" link="2" end_time="09:20:27" />
			<leg mode="car">
			</leg>
			<act type="w" link="50" end_time="15:30:44" />
			<leg mode="car">
			</leg>
			<act type="h" link="2" />
			<leg mode="car">
			</leg>
		</plan>

	</person>

<!-- ====================================================================== -->

	<person id="25" employed="no">
		<plan selected="yes">
			<act type="h" link="2" end_time="09:19:27" />
			<leg mode="car">
			</leg>
			<act type="w" link="50" end_time="16:22:08" />
			<leg mode="car">
			</leg>
			<act type="h" link="2" />
			<leg mode="car">
			</leg>
		</plan>

	</person>

<!-- ====================================================================== -->

	<person id="26" employed="no">
		<plan selected="yes">
			<act type="h" link="2" end_time="09:15:46" />
			<leg mode="car">
			</leg>
			<act type="w" link="50" end_time="13:31:26" />
			<leg mode="car">
			</leg>
			<act type="h" link="2" />
			<leg mode="car">
			</leg>
		</plan>

	</person>

<!-- ====================================================================== -->

	<person id="27" employed="no">
		<plan selected="yes">
			<act type="h" link="2" end_time="09:20:18" />
			<leg mode="car">
			</leg>
			<act type="w" link="50" end_time="12:15:08" />
			<leg mode="car">
			</leg>
			<act type="h" link="2" />
			<leg mode="car">
			</leg>
		</plan>

	</person>

<!-- ====================================================================== -->

	<person id="28" employed="no">
		<plan selected="yes">
			<act type="h" link="2" end_time="10:18:06" />
			<leg mode="car">
			</leg>
			<act type="w" link="50" end_time="16:12:30" />
			<leg mode="car">
			</leg>
			<act type="h" link="2" />
			<leg mode="car">
			</leg>
		</plan>

	</person>

<!-- ====================================================================== -->

	<person id="29" employed="no">
		<plan selected="yes">
			<act type="h" link="2" end_time="10:25:22" />
			<leg mode="car">
			</leg>
			<act type="w" link="50" end_time="15:19:13" />
			<leg mode="car">
			</leg>
			<act type="h" link="2" />
			<leg mode="car">
			</leg>
		</plan>

	</person>

<!-- ====================================================================== -->

	<person id="3" employed="no">
		<plan selected="yes">
			<act type="h" link="2" end_time="02:24:02" />
			<leg mode="car">
			</leg>
			<act type="w" link="50" end_time="09:55:00" />
			<leg mode="car">
			</leg>
			<act type="h" link="2" />
			<leg mode="car">
			</leg>
		</plan>

	</person>

<!-- ====================================================================== -->

	<person id="30" employed="no">
		<plan selected="yes">
			<act type="h" link="2" end_time="10:01:09" />
			<leg mode="car">
			</leg>
			<act type="w" link="50" end_time="14:43:00" />
			<leg mode="car">
			</leg>
			<act type="h" link="2" />
			<leg mode="car">
			</leg>
		</plan>

	</person>

<!-- ====================================================================== -->

	<person id="31" employed="no">
		<plan selected="yes">
			<act type="h" link="2" end_time="10:49:43" />
			<leg mode="car">
			</leg>
			<act type="w" link="50" end_time="12:10:11" />
			<leg mode="car">
			</leg>
			<act type="h" link="2" />
			<leg mode="car">
			</leg>
		</plan>

	</person>

<!-- ====================================================================== -->

	<person id="32" employed="no">
		<plan selected="yes">
			<act type="h" link="2" end_time="10:59:57" />
			<leg mode="car">
			</leg>
			<act type="w" link="50" end_time="15:11:43" />
			<leg mode="car">
			</leg>
			<act type="h" link="2" />
			<leg mode="car">
			</leg>
		</plan>

	</person>

<!-- ====================================================================== -->

	<person id="33" employed="no">
		<plan selected="yes">
			<act type="h" link="2" end_time="10:07:53" />
			<leg mode="car">
			</leg>
			<act type="w" link="50" end_time="12:42:26" />
			<leg mode="car">
			</leg>
			<act type="h" link="2" />
			<leg mode="car">
			</leg>
		</plan>

	</person>

<!-- ====================================================================== -->

	<person id="34" employed="no">
		<plan selected="yes">
			<act type="h" link="2" end_time="11:21:20" />
			<leg mode="car">
			</leg>
			<act type="w" link="50" end_time="12:42:56" />
			<leg mode="car">
			</leg>
			<act type="h" link="2" />
			<leg mode="car">
			</leg>
		</plan>

	</person>

<!-- ====================================================================== -->

	<person id="35" employed="no">
		<plan selected="yes">
			<act type="h" link="2" end_time="11:33:33" />
			<leg mode="car">
			</leg>
			<act type="w" link="50" end_time="12:48:58" />
			<leg mode="car">
			</leg>
			<act type="h" link="2" />
			<leg mode="car">
			</leg>
		</plan>

	</person>

<!-- ====================================================================== -->

	<person id="36" employed="no">
		<plan selected="yes">
			<act type="h" link="2" end_time="11:51:34" />
			<leg mode="car">
			</leg>
			<act type="w" link="50" end_time="13:10:09" />
			<leg mode="car">
			</leg>
			<act type="h" link="2" />
			<leg mode="car">
			</leg>
		</plan>

	</person>

<!-- ====================================================================== -->

	<person id="37" employed="no">
		<plan selected="yes">
			<act type="h" link="2" end_time="11:43:59" />
			<leg mode="car">
			</leg>
			<act type="w" link="50" end_time="17:00:50" />
			<leg mode="car">
			</leg>
			<act type="h" link="2" />
			<leg mode="car">
			</leg>
		</plan>

	</person>

<!-- ====================================================================== -->

	<person id="38" employed="no">
		<plan selected="yes">
			<act type="h" link="2" end_time="11:51:04" />
			<leg mode="car">
			</leg>
			<act type="w" link="50" end_time="15:21:54" />
			<leg mode="car">
			</leg>
			<act type="h" link="2" />
			<leg mode="car">
			</leg>
		</plan>

	</person>

<!-- ====================================================================== -->

	<person id="39" employed="no">
		<plan selected="yes">
			<act type="h" link="2" end_time="12:44:54" />
			<leg mode="car">
			</leg>
			<act type="w" link="50" end_time="14:22:47" />
			<leg mode="car">
			</leg>
			<act type="h" link="2" />
			<leg mode="car">
			</leg>
		</plan>

	</person>

<!-- ====================================================================== -->

	<person id="4" employed="no">
		<plan selected="yes">
			<act type="h" link="2" end_time="03:17:42" />
			<leg mode="car">
			</leg>
			<act type="w" link="50" end_time="10:39:12" />
			<leg mode="car">
			</leg>
			<act type="h" link="2" />
			<leg mode="car">
			</leg>
		</plan>

	</person>

<!-- ====================================================================== -->

	<person id="40" employed="no">
		<plan selected="yes">
			<act type="h" link="2" end_time="12:22:53" />
			<leg mode="car">
			</leg>
			<act type="w" link="50" end_time="19:24:30" />
			<leg mode="car">
			</leg>
			<act type="h" link="2" />
			<leg mode="car">
			</leg>
		</plan>

	</person>

<!-- ====================================================================== -->

	<person id="41" employed="no">
		<plan selected="yes">
			<act type="h" link="2" end_time="12:08:12" />
			<leg mode="car">
			</leg>
			<act type="w" link="50" end_time="18:46:44" />
			<leg mode="car">
			</leg>
			<act type="h" link="2" />
			<leg mode="car">
			</leg>
		</plan>

	</person>

<!-- ====================================================================== -->

	<person id="42" employed="no">
		<plan selected="yes">
			<act type="h" link="2" end_time="12:20:58" />
			<leg mode="car">
			</leg>
			<act type="w" link="50" end_time="18:26:27" />
			<leg mode="car">
			</leg>
			<act type="h" link="2" />
			<leg mode="car">
			</leg>
		</plan>

	</person>

<!-- ====================================================================== -->

	<person id="43" employed="no">
		<plan selected="yes">
			<act type="h" link="2" end_time="13:50:24" />
			<leg mode="car">
			</leg>
			<act type="w" link="50" end_time="18:08:45" />
			<leg mode="car">
			</leg>
			<act type="h" link="2" />
			<leg mode="car">
			</leg>
		</plan>

	</person>

<!-- ====================================================================== -->

	<person id="44" employed="no">
		<plan selected="yes">
			<act type="h" link="2" end_time="13:54:49" />
			<leg mode="car">
			</leg>
			<act type="w" link="50" end_time="15:19:03" />
			<leg mode="car">
			</leg>
			<act type="h" link="2" />
			<leg mode="car">
			</leg>
		</plan>

	</person>

<!-- ====================================================================== -->

	<person id="45" employed="no">
		<plan selected="yes">
			<act type="h" link="2" end_time="13:14:02" />
			<leg mode="car">
			</leg>
			<act type="w" link="50" end_time="17:57:30" />
			<leg mode="car">
			</leg>
			<act type="h" link="2" />
			<leg mode="car">
			</leg>
		</plan>

	</person>

<!-- ====================================================================== -->

	<person id="46" employed="no">
		<plan selected="yes">
			<act type="h" link="2" end_time="13:42:31" />
			<leg mode="car">
			</leg>
			<act type="w" link="50" end_time="16:30:06" />
			<leg mode="car">
			</leg>
			<act type="h" link="2" />
			<leg mode="car">
			</leg>
		</plan>

	</person>

<!-- ====================================================================== -->

	<person id="47" employed="no">
		<plan selected="yes">
			<act type="h" link="2" end_time="14:03:03" />
			<leg mode="car">
			</leg>
			<act type="w" link="50" end_time="17:38:06" />
			<leg mode="car">
			</leg>
			<act type="h" link="2" />
			<leg mode="car">
			</leg>
		</plan>

	</person>

<!-- ====================================================================== -->

	<person id="48" employed="no">
		<plan selected="yes">
			<act type="h" link="2" end_time="14:19:12" />
			<leg mode="car">
			</leg>
			<act type="w" link="50" end_time="14:21:23" />
			<leg mode="car">
			</leg>
			<act type="h" link="2" />
			<leg mode="car">
			</leg>
		</plan>

	</person>

<!-- ====================================================================== -->

	<person id="49" employed="no">
		<plan selected="yes">
			<act type="h" link="2" end_time="14:36:18" />
			<leg mode="car">
			</leg>
			<act type="w" link="50" end_time="21:43:38" />
			<leg mode="car">
			</leg>
			<act type="h" link="2" />
			<leg mode="car">
			</leg>
		</plan>

	</person>

<!-- ====================================================================== -->

	<person id="5" employed="no">
		<plan selected="yes">
			<act type="h" link="2" end_time="03:19:08" />
			<leg mode="car">
			</leg>
			<act type="w" link="50" end_time="06:55:34" />
			<leg mode="car">
			</leg>
			<act type="h" link="2" />
			<leg mode="car">
			</leg>
		</plan>

	</person>

<!-- ====================================================================== -->

	<person id="50" employed="no">
		<plan selected="yes">
			<act type="h" link="2" end_time="15:40:46" />
			<leg mode="car">
			</leg>
			<act type="w" link="50" end_time="18:09:16" />
			<leg mode="car">
			</leg>
			<act type="h" link="2" />
			<leg mode="car">
			</leg>
		</plan>

	</person>

<!-- ====================================================================== -->

	<person id="51" employed="no">
		<plan selected="yes">
			<act type="h" link="2" end_time="15:10:11" />
			<leg mode="car">
			</leg>
			<act type="w" link="50" end_time="21:17:07" />
			<leg mode="car">
			</leg>
			<act type="h" link="2" />
			<leg mode="car">
			</leg>
		</plan>

	</person>

<!-- ====================================================================== -->

	<person id="52" employed="no">
		<plan selected="yes">
			<act type="h" link="2" end_time="15:01:27" />
			<leg mode="car">
			</leg>
			<act type="w" link="50" end_time="21:35:39" />
			<leg mode="car">
			</leg>
			<act type="h" link="2" />
			<leg mode="car">
			</leg>
		</plan>

	</person>

<!-- ====================================================================== -->

	<person id="53" employed="no">
		<plan selected="yes">
			<act type="h" link="2" end_time="15:28:24" />
			<leg mode="car">
			</leg>
			<act type="w" link="50" end_time="22:01:52" />
			<leg mode="car">
			</leg>
			<act type="h" link="2" />
			<leg mode="car">
			</leg>
		</plan>

	</person>

<!-- ====================================================================== -->

	<person id="54" employed="no">
		<plan selected="yes">
			<act type="h" link="2" end_time="16:10:07" />
			<leg mode="car">
			</leg>
			<act type="w" link="50" end_time="16:12:28" />
			<leg mode="car">
			</leg>
			<act type="h" link="2" />
			<leg mode="car">
			</leg>
		</plan>

	</person>

<!-- ====================================================================== -->

	<person id="55" employed="no">
		<plan selected="yes">
			<act type="h" link="2" end_time="16:40:26" />
			<leg mode="car">
			</leg>
			<act type="w" link="50" end_time="22:07:46" />
			<leg mode="car">
			</leg>
			<act type="h" link="2" />
			<leg mode="car">
			</leg>
		</plan>

	</person>

<!-- ====================================================================== -->

	<person id="56" employed="no">
		<plan selected="yes">
			<act type="h" link="2" end_time="16:20:59" />
			<leg mode="car">
			</leg>
			<act type="w" link="50" end_time="22:42:42" />
			<leg mode="car">
			</leg>
			<act type="h" link="2" />
			<leg mode="car">
			</leg>
		</plan>

	</person>

<!-- ====================================================================== -->

	<person id="57" employed="no">
		<plan selected="yes">
			<act type="h" link="2" end_time="16:50:24" />
			<leg mode="car">
			</leg>
			<act type="w" link="50" end_time="22:56:49" />
			<leg mode="car">
			</leg>
			<act type="h" link="2" />
			<leg mode="car">
			</leg>
		</plan>

	</person>

<!-- ====================================================================== -->

	<person id="58" employed="no">
		<plan selected="yes">
			<act type="h" link="2" end_time="16:56:17" />
			<leg mode="car">
			</leg>
			<act type="w" link="50" end_time="23:40:10" />
			<leg mode="car">
			</leg>
			<act type="h" link="2" />
			<leg mode="car">
			</leg>
		</plan>

	</person>

<!-- ====================================================================== -->

	<person id="59" employed="no">
		<plan selected="yes">
			<act type="h" link="2" end_time="17:54:59" />
			<leg mode="car">
			</leg>
			<act type="w" link="50" end_time="22:01:20" />
			<leg mode="car">
			</leg>
			<act type="h" link="2" />
			<leg mode="car">
			</leg>
		</plan>

	</person>

<!-- ====================================================================== -->

	<person id="6" employed="no">
		<plan selected="yes">
			<act type="h" link="2" end_time="04:32:58" />
			<leg mode="car">
			</leg>
			<act type="w" link="50" end_time="05:04:59" />
			<leg mode="car">
			</leg>
			<act type="h" link="2" />
			<leg mode="car">
			</leg>
		</plan>

	</person>

<!-- ====================================================================== -->

	<person id="60" employed="no">
		<plan selected="yes">
			<act type="h" link="2" end_time="17:58:29" />
			<leg mode="car">
			</leg>
			<act type="w" link="50" end_time="22:59:11" />
			<leg mode="car">
			</leg>
			<act type="h" link="2" />
			<leg mode="car">
			</leg>
		</plan>

	</person>

<!-- ====================================================================== -->

	<person id="61" employed="no">
		<plan selected="yes">
			<act type="h" link="2" end_time="17:41:44" />
			<leg mode="car">
			</leg>
			<act type="w" link="50" end_time="19:22:46" />
			<leg mode="car">
			</leg>
			<act type="h" link="2" />
			<leg mode="car">
			</leg>
		</plan>

	</person>

<!-- ====================================================================== -->

	<person id="62" employed="no">
		<plan selected="yes">
			<act type="h" link="2" end_time="17:36:34" />
			<leg mode="car">
			</leg>
			<act type="w" link="50" end_time="19:20:58" />
			<leg mode="car">
			</leg>
			<act type="h" link="2" />
			<leg mode="car">
			</leg>
		</plan>

	</person>

<!-- ====================================================================== -->

	<person id="63" employed="no">
		<plan selected="yes">
			<act type="h" link="2" end_time="17:03:41" />
			<leg mode="car">
			</leg>
			<act type="w" link="50" end_time="17:51:41" />
			<leg mode="car">
			</leg>
			<act type="h" link="2" />
			<leg mode="car">
			</leg>
		</plan>

	</person>

<!-- ====================================================================== -->

	<person id="64" employed="no">
		<plan selected="yes">
			<act type="h" link="2" end_time="17:20:46" />
			<leg mode="car">
			</leg>
			<act type="w" link="50" end_time="22:44:14" />
			<leg mode="car">
			</leg>
			<act type="h" link="2" />
			<leg mode="car">
			</leg>
		</plan>

	</person>

<!-- ====================================================================== -->

	<person id="65" employed="no">
		<plan selected="yes">
			<act type="h" link="2" end_time="17:03:47" />
			<leg mode="car">
			</leg>
			<act type="w" link="50" end_time="23:02:43" />
			<leg mode="car">
			</leg>
			<act type="h" link="2" />
			<leg mode="car">
			</leg>
		</plan>

	</person>

<!-- ====================================================================== -->

	<person id="66" employed="no">
		<plan selected="yes">
			<act type="h" link="2" end_time="18:33:36" />
			<leg mode="car">
			</leg>
			<act type="w" link="50" end_time="22:18:38" />
			<leg mode="car">
			</leg>
			<act type="h" link="2" />
			<leg mode="car">
			</leg>
		</plan>

	</person>

<!-- ====================================================================== -->

	<person id="67" employed="no">
		<plan selected="yes">
			<act type="h" link="2" end_time="18:48:21" />
			<leg mode="car">
			</leg>
			<act type="w" link="50" end_time="25:07:06" />
			<leg mode="car">
			</leg>
			<act type="h" link="2" />
			<leg mode="car">
			</leg>
		</plan>

	</person>

<!-- ====================================================================== -->

	<person id="68" employed="no">
		<plan selected="yes">
			<act type="h" link="2" end_time="18:24:30" />
			<leg mode="car">
			</leg>
			<act type="w" link="50" end_time="18:43:35" />
			<leg mode="car">
			</leg>
			<act type="h" link="2" />
			<leg mode="car">
			</leg>
		</plan>

	</person>

<!-- ====================================================================== -->

	<person id="69" employed="no">
		<plan selected="yes">
			<act type="h" link="2" end_time="18:45:01" />
			<leg mode="car">
			</leg>
			<act type="w" link="50" end_time="24:05:20" />
			<leg mode="car">
			</leg>
			<act type="h" link="2" />
			<leg mode="car">
			</leg>
		</plan>

	</person>

<!-- ====================================================================== -->

	<person id="7" employed="no">
		<plan selected="yes">
			<act type="h" link="2" end_time="04:48:31" />
			<leg mode="car">
			</leg>
			<act type="w" link="50" end_time="11:18:25" />
			<leg mode="car">
			</leg>
			<act type="h" link="2" />
			<leg mode="car">
			</leg>
		</plan>

	</person>

<!-- ====================================================================== -->

	<person id="70" employed="no">
		<plan selected="yes">
			<act type="h" link="2" end_time="18:07:23" />
			<leg mode="car">
			</leg>
			<act type="w" link="50" end_time="24:08:29" />
			<leg mode="car">
			</leg>
			<act type="h" link="2" />
			<leg mode="car">
			</leg>
		</plan>

	</person>

<!-- ====================================================================== -->

	<person id="71" employed="no">
		<plan selected="yes">
			<act type="h" link="2" end_time="19:36:05" />
			<leg mode="car">
			</leg>
			<act type="w" link="50" end_time="19:43:55" />
			<leg mode="car">
			</leg>
			<act type="h" link="2" />
			<leg mode="car">
			</leg>
		</plan>

	</person>

<!-- ====================================================================== -->

	<person id="72" employed="no">
		<plan selected="yes">
			<act type="h" link="2" end_time="19:06:03" />
			<leg mode="car">
			</leg>
			<act type="w" link="50" end_time="20:05:47" />
			<leg mode="car">
			</leg>
			<act type="h" link="2" />
			<leg mode="car">
			</leg>
		</plan>

	</person>

<!-- ====================================================================== -->

	<person id="73" employed="no">
		<plan selected="yes">
			<act type="h" link="2" end_time="19:12:11" />
			<leg mode="car">
			</leg>
			<act type="w" link="50" end_time="25:49:19" />
			<leg mode="car">
			</leg>
			<act type="h" link="2" />
			<leg mode="car">
			</leg>
		</plan>

	</person>

<!-- ====================================================================== -->

	<person id="74" employed="no">
		<plan selected="yes">
			<act type="h" link="2" end_time="19:23:54" />
			<leg mode="car">
			</leg>
			<act type="w" link="50" end_time="22:02:57" />
			<leg mode="car">
			</leg>
			<act type="h" link="2" />
			<leg mode="car">
			</leg>
		</plan>

	</person>

<!-- ====================================================================== -->

	<person id="75" employed="no">
		<plan selected="yes">
			<act type="h" link="2" end_time="19:59:01" />
			<leg mode="car">
			</leg>
			<act type="w" link="50" end_time="21:28:27" />
			<leg mode="car">
			</leg>
			<act type="h" link="2" />
			<leg mode="car">
			</leg>
		</plan>

	</person>

<!-- ====================================================================== -->

	<person id="76" employed="no">
		<plan selected="yes">
			<act type="h" link="2" end_time="20:50:09" />
			<leg mode="car">
			</leg>
			<act type="w" link="50" end_time="26:16:54" />
			<leg mode="car">
			</leg>
			<act type="h" link="2" />
			<leg mode="car">
			</leg>
		</plan>

	</person>

<!-- ====================================================================== -->

	<person id="77" employed="no">
		<plan selected="yes">
			<act type="h" link="2" end_time="20:24:39" />
			<leg mode="car">
			</leg>
			<act type="w" link="50" end_time="27:22:47" />
			<leg mode="car">
			</leg>
			<act type="h" link="2" />
			<leg mode="car">
			</leg>
		</plan>

	</person>

<!-- ====================================================================== -->

	<person id="78" employed="no">
		<plan selected="yes">
			<act type="h" link="2" end_time="20:03:18" />
			<leg mode="car">
			</leg>
			<act type="w" link="50" end_time="20:07:01" />
			<leg mode="car">
			</leg>
			<act type="h" link="2" />
			<leg mode="car">
			</leg>
		</plan>

	</person>

<!-- ====================================================================== -->

	<person id="79" employed="no">
		<plan selected="yes">
			<act type="h" link="2" end_time="20:41:48" />
			<leg mode="car">
			</leg>
			<act type="w" link="50" end_time="23:27:00" />
			<leg mode="car">
			</leg>
			<act type="h" link="2" />
			<leg mode="car">
			</leg>
		</plan>

	</person>

<!-- ====================================================================== -->

	<person id="8" employed="no">
		<plan selected="yes">
			<act type="h" link="2" end_time="05:30:35" />
			<leg mode="car">
			</leg>
			<act type="w" link="50" end_time="09:27:24" />
			<leg mode="car">
			</leg>
			<act type="h" link="2" />
			<leg mode="car">
			</leg>
		</plan>

	</person>

<!-- ====================================================================== -->

	<person id="80" employed="no">
		<plan selected="yes">
			<act type="h" link="2" end_time="21:51:05" />
			<leg mode="car">
			</leg>
			<act type="w" link="50" end_time="22:31:52" />
			<leg mode="car">
			</leg>
			<act type="h" link="2" />
			<leg mode="car">
			</leg>
		</plan>

	</person>
